REMARK SMILES CC(=O)Oc1ccccc1C(=O)O
REMARK SMILES IDX 5 1 6 2 7 3 8 4 9 5 10 6 4 7 2 8 1 9 3 10 11 11 12 12 13 13
REMARK H PARENT 13 14
REMARK Flexibility Score: inf
ROOT
ATOM      1  C   UNL     1      -0.238   0.481   0.392  1.00  0.00     0.145 A 
ATOM      2  C   UNL     1      -0.691   1.804   0.420  1.00  0.00     0.048 A 
ATOM      3  C   UNL     1       0.185   2.839   0.103  1.00  0.00     0.004 A 
ATOM      4  C   UNL     1       1.510   2.554  -0.228  1.00  0.00     0.001 A 
ATOM      5  C   UNL     1       1.964   1.232  -0.236  1.00  0.00     0.019 A 
ATOM      6  C   UNL     1       1.095   0.176   0.082  1.00  0.00     0.102 A 
ENDROOT
BRANCH   1   7
ATOM      7  O   UNL     1      -1.160  -0.508   0.749  1.00  0.00    -0.426 OA
BRANCH   7   8
ATOM      8  C   UNL     1      -1.722  -1.138  -0.356  1.00  0.00     0.308 C 
ATOM      9  C   UNL     1      -2.617  -2.243   0.119  1.00  0.00     0.139 C 
ATOM     10  O   UNL     1      -1.549  -0.845  -1.532  1.00  0.00    -0.252 OA
ENDBRANCH   7   8
ENDBRANCH   1   7
BRANCH   6  11
ATOM     11  C   UNL     1       1.579  -1.229   0.103  1.00  0.00     0.339 C 
ATOM     12  O   UNL     1       0.951  -2.217   0.438  1.00  0.00    -0.246 OA
BRANCH  11  13
ATOM     13  O   UNL     1       2.859  -1.341  -0.300  1.00  0.00    -0.478 OA
ATOM     14  H   UNL     1       3.035  -2.304  -0.253  1.00  0.00     0.297 HD
ENDBRANCH  11  13
ENDBRANCH   6  11
TORSDOF 4
