MODEL 1
REMARK VINA RESULT:      -6.3      0.000      0.000
REMARK SMILES CC(=O)Oc1ccccc1C(=O)O
REMARK SMILES IDX 5 1 6 2 7 3 8 4 9 5 10 6 4 7 2 8 1 9 3 10 11 11 12 12 13 13
REMARK H PARENT 13 14
REMARK Flexibility Score: inf
ROOT
ATOM      1  C   UNL     1      25.012   3.818  34.507  1.00  0.00     0.145 A 
ATOM      2  C   UNL     1      24.568   3.176  35.668  1.00  0.00     0.048 A 
ATOM      3  C   UNL     1      24.079   1.875  35.592  1.00  0.00     0.004 A 
ATOM      4  C   UNL     1      24.023   1.222  34.361  1.00  0.00     0.001 A 
ATOM      5  C   UNL     1      24.449   1.873  33.200  1.00  0.00     0.019 A 
ATOM      6  C   UNL     1      24.944   3.186  33.257  1.00  0.00     0.102 A 
ENDROOT
BRANCH   1   7
ATOM      7  O   UNL     1      25.464   5.134  34.648  1.00  0.00    -0.426 OA
BRANCH   7   8
ATOM      8  C   UNL     1      26.751   5.204  35.169  1.00  0.00     0.308 C 
ATOM      9  C   UNL     1      26.737   6.092  36.377  1.00  0.00     0.139 C 
ATOM     10  O   UNL     1      27.745   4.628  34.745  1.00  0.00    -0.252 OA
ENDBRANCH   7   8
ENDBRANCH   1   7
BRANCH   6  11
ATOM     11  C   UNL     1      25.372   3.893  32.022  1.00  0.00     0.339 C 
ATOM     12  O   UNL     1      24.675   4.199  31.072  1.00  0.00    -0.246 OA
BRANCH  11  13
ATOM     13  O   UNL     1      26.686   4.190  32.025  1.00  0.00    -0.478 OA
ATOM     14  H   UNL     1      26.717   5.114  31.702  1.00  0.00     0.297 HD
ENDBRANCH  11  13
ENDBRANCH   6  11
TORSDOF 4
ENDMDL
MODEL 2
REMARK VINA RESULT:      -5.8      2.581      3.839
REMARK SMILES CC(=O)Oc1ccccc1C(=O)O
REMARK SMILES IDX 5 1 6 2 7 3 8 4 9 5 10 6 4 7 2 8 1 9 3 10 11 11 12 12 13 13
REMARK H PARENT 13 14
REMARK Flexibility Score: inf
ROOT
ATOM      1  C   UNL     1      24.365   2.892  32.746  1.00  0.00     0.145 A 
ATOM      2  C   UNL     1      25.044   3.924  32.089  1.00  0.00     0.048 A 
ATOM      3  C   UNL     1      24.652   4.299  30.806  1.00  0.00     0.004 A 
ATOM      4  C   UNL     1      23.596   3.637  30.179  1.00  0.00     0.001 A 
ATOM      5  C   UNL     1      22.933   2.593  30.831  1.00  0.00     0.019 A 
ATOM      6  C   UNL     1      23.315   2.202  32.124  1.00  0.00     0.102 A 
ENDROOT
BRANCH   1   7
ATOM      7  O   UNL     1      24.828   2.546  34.020  1.00  0.00    -0.426 OA
BRANCH   7   8
ATOM      8  C   UNL     1      24.610   3.549  34.958  1.00  0.00     0.308 C 
ATOM      9  C   UNL     1      25.862   3.744  35.759  1.00  0.00     0.139 C 
ATOM     10  O   UNL     1      23.583   4.198  35.111  1.00  0.00    -0.252 OA
ENDBRANCH   7   8
ENDBRANCH   1   7
BRANCH   6  11
ATOM     11  C   UNL     1      22.634   1.074  32.812  1.00  0.00     0.339 C 
ATOM     12  O   UNL     1      21.440   0.835  32.823  1.00  0.00    -0.246 OA
BRANCH  11  13
ATOM     13  O   UNL     1      23.493   0.278  33.476  1.00  0.00    -0.478 OA
ATOM     14  H   UNL     1      23.442  -0.574  32.994  1.00  0.00     0.297 HD
ENDBRANCH  11  13
ENDBRANCH   6  11
TORSDOF 4
ENDMDL
MODEL 3
REMARK VINA RESULT:      -5.8      1.534      3.765
REMARK SMILES CC(=O)Oc1ccccc1C(=O)O
REMARK SMILES IDX 5 1 6 2 7 3 8 4 9 5 10 6 4 7 2 8 1 9 3 10 11 11 12 12 13 13
REMARK H PARENT 13 14
REMARK Flexibility Score: inf
ROOT
ATOM      1  C   UNL     1      25.221   2.883  34.584  1.00  0.00     0.145 A 
ATOM      2  C   UNL     1      24.290   2.739  35.618  1.00  0.00     0.048 A 
ATOM      3  C   UNL     1      24.321   3.615  36.699  1.00  0.00     0.004 A 
ATOM      4  C   UNL     1      25.286   4.622  36.754  1.00  0.00     0.001 A 
ATOM      5  C   UNL     1      26.227   4.750  35.728  1.00  0.00     0.019 A 
ATOM      6  C   UNL     1      26.211   3.875  34.630  1.00  0.00     0.102 A 
ENDROOT
BRANCH   1   7
ATOM      7  O   UNL     1      25.154   1.953  33.542  1.00  0.00    -0.426 OA
BRANCH   7   8
ATOM      8  C   UNL     1      24.059   2.160  32.711  1.00  0.00     0.308 C 
ATOM      9  C   UNL     1      23.193   0.936  32.736  1.00  0.00     0.139 C 
ATOM     10  O   UNL     1      23.807   3.172  32.071  1.00  0.00    -0.252 OA
ENDBRANCH   7   8
ENDBRANCH   1   7
BRANCH   6  11
ATOM     11  C   UNL     1      27.226   3.989  33.551  1.00  0.00     0.339 C 
ATOM     12  O   UNL     1      28.437   3.997  33.680  1.00  0.00    -0.246 OA
BRANCH  11  13
ATOM     13  O   UNL     1      26.672   4.094  32.328  1.00  0.00    -0.478 OA
ATOM     14  H   UNL     1      25.882   3.516  32.380  1.00  0.00     0.297 HD
ENDBRANCH  11  13
ENDBRANCH   6  11
TORSDOF 4
ENDMDL
