REMARK SMILES COc1ccc2c(C)c(CC(=O)O)n(C(=O)c3ccc(Cl)cc3)c2c1
REMARK SMILES IDX 3 1 25 2 24 3 6 4 5 5 4 6 7 7 9 8 14 9 8 10 2 11 1 12 15 13
REMARK SMILES IDX 16 14 17 15 18 16 23 17 19 18 22 19 20 20 21 21 10 22 11 23
REMARK SMILES IDX 12 24 13 25
REMARK H PARENT 13 26
REMARK Flexibility Score: inf
ROOT
ATOM      1  C   UNL     1      -3.410  -2.043   0.395  1.00  0.00     0.120 A 
ATOM      2  C   UNL     1      -2.047  -1.906   0.111  1.00  0.00     0.073 A 
ATOM      3  C   UNL     1      -1.525  -0.617  -0.149  1.00  0.00     0.060 A 
ATOM      4  C   UNL     1      -2.341   0.513  -0.109  1.00  0.00     0.004 A 
ATOM      5  C   UNL     1      -3.711   0.357   0.185  1.00  0.00     0.014 A 
ATOM      6  C   UNL     1      -4.228  -0.918   0.433  1.00  0.00     0.047 A 
ATOM      7  C   UNL     1      -1.535   1.643  -0.421  1.00  0.00    -0.021 A 
ATOM      8  C   UNL     1      -0.247   1.181  -0.666  1.00  0.00     0.041 A 
ATOM      9  N   UNL     1      -0.215  -0.195  -0.407  1.00  0.00    -0.279 N 
ATOM     10  C   UNL     1      -2.028   3.046  -0.531  1.00  0.00     0.047 C 
ENDROOT
BRANCH   1  11
ATOM     11  O   UNL     1      -4.056  -3.222   0.659  1.00  0.00    -0.497 OA
ATOM     12  C   UNL     1      -3.280  -4.411   0.572  1.00  0.00     0.278 C 
ENDBRANCH   1  11
BRANCH   9  13
ATOM     13  C   UNL     1       0.916  -1.054  -0.418  1.00  0.00     0.262 C 
ATOM     14  O   UNL     1       0.755  -2.223  -0.765  1.00  0.00    -0.268 OA
BRANCH  13  15
ATOM     15  C   UNL     1       2.282  -0.660  -0.011  1.00  0.00     0.040 A 
ATOM     16  C   UNL     1       2.487   0.065   1.167  1.00  0.00     0.015 A 
ATOM     17  C   UNL     1       3.374  -1.084  -0.777  1.00  0.00     0.015 A 
ATOM     18  C   UNL     1       3.785   0.409   1.552  1.00  0.00     0.021 A 
ATOM     19  C   UNL     1       4.671  -0.737  -0.390  1.00  0.00     0.021 A 
ATOM     20  C   UNL     1       4.870   0.012   0.770  1.00  0.00     0.041 A 
ATOM     21  Cl  UNL     1       6.466   0.445   1.243  1.00  0.00    -0.084 Cl
ENDBRANCH  13  15
ENDBRANCH   9  13
BRANCH   8  22
ATOM     22  C   UNL     1       0.905   1.968  -1.241  1.00  0.00     0.177 C 
BRANCH  22  23
ATOM     23  C   UNL     1       1.575   2.856  -0.216  1.00  0.00     0.309 C 
ATOM     24  O   UNL     1       1.294   3.002   0.961  1.00  0.00    -0.252 OA
BRANCH  23  25
ATOM     25  O   UNL     1       2.612   3.536  -0.752  1.00  0.00    -0.481 OA
ATOM     26  H   UNL     1       2.961   4.069  -0.007  1.00  0.00     0.296 HD
ENDBRANCH  23  25
ENDBRANCH  22  23
ENDBRANCH   8  22
TORSDOF 6
