REMARK SMILES Cc1ccc(-c2cc(C(F)(F)F)nn2-c2ccc(S(N)(=O)=O)cc2)cc1
REMARK SMILES IDX 15 1 16 2 17 3 18 4 23 5 24 6 14 7 6 8 7 9 8 10 13 11 5 12
REMARK SMILES IDX 1 13 2 14 3 15 26 16 4 17 25 18 9 19 10 20 11 21 12 22 19 23
REMARK SMILES IDX 21 24 22 25 20 26
REMARK H PARENT 20 27 20 28
REMARK Flexibility Score: inf
ROOT
ATOM      1  C   UNL     1       1.227   0.787   0.310  1.00  0.00     0.065 A 
ATOM      2  C   UNL     1       2.445   1.038   0.972  1.00  0.00     0.030 A 
ATOM      3  C   UNL     1       3.566   0.234   0.744  1.00  0.00     0.024 A 
ATOM      4  C   UNL     1       3.474  -0.831  -0.151  1.00  0.00     0.082 A 
ATOM      5  C   UNL     1       2.285  -1.079  -0.839  1.00  0.00     0.024 A 
ATOM      6  C   UNL     1       1.166  -0.268  -0.611  1.00  0.00     0.030 A 
ENDROOT
BRANCH   1   7
ATOM      7  N   UNL     1       0.109   1.645   0.576  1.00  0.00    -0.233 N 
ATOM      8  C   UNL     1      -1.240   1.521   0.240  1.00  0.00     0.075 A 
ATOM      9  C   UNL     1      -1.832   2.717   0.605  1.00  0.00     0.064 A 
ATOM     10  C   UNL     1      -0.828   3.479   1.238  1.00  0.00     0.167 A 
ATOM     11  N   UNL     1       0.331   2.802   1.265  1.00  0.00    -0.163 NA
BRANCH   8  12
ATOM     12  C   UNL     1      -1.918   0.354  -0.315  1.00  0.00     0.000 A 
ATOM     13  C   UNL     1      -3.971  -3.068  -1.952  1.00  0.00     0.044 C 
ATOM     14  C   UNL     1      -3.274  -1.875  -1.368  1.00  0.00    -0.051 A 
ATOM     15  C   UNL     1      -2.694  -1.935  -0.096  1.00  0.00     0.004 A 
ATOM     16  C   UNL     1      -3.169  -0.693  -2.110  1.00  0.00     0.004 A 
ATOM     17  C   UNL     1      -2.029  -0.825   0.432  1.00  0.00     0.010 A 
ATOM     18  C   UNL     1      -2.505   0.418  -1.583  1.00  0.00     0.010 A 
ENDBRANCH   8  12
BRANCH  10  19
ATOM     19  C   UNL     1      -0.991   4.844   1.851  1.00  0.00     0.435 C 
ATOM     20  F   UNL     1      -1.019   4.796   3.210  1.00  0.00    -0.164 F 
ATOM     21  F   UNL     1       0.004   5.702   1.502  1.00  0.00    -0.164 F 
ATOM     22  F   UNL     1      -2.158   5.433   1.464  1.00  0.00    -0.164 F 
ENDBRANCH  10  19
ENDBRANCH   1   7
BRANCH   4  23
ATOM     23  S   UNL     1       4.897  -1.848  -0.441  1.00  0.00     0.238 S 
ATOM     24  O   UNL     1       4.658  -2.648  -1.620  1.00  0.00    -0.207 OA
ATOM     25  O   UNL     1       6.080  -1.039  -0.275  1.00  0.00    -0.207 OA
BRANCH  23  26
ATOM     26  N   UNL     1       4.812  -2.921   0.855  1.00  0.00    -0.225 NA
ATOM     27  H   UNL     1       4.655  -3.863   0.494  1.00  0.00     0.137 HD
ATOM     28  H   UNL     1       4.119  -2.657   1.554  1.00  0.00     0.137 HD
ENDBRANCH  23  26
ENDBRANCH   4  23
TORSDOF 5
