REMARK SMILES CC(C)Cc1ccc(C(C)C(=O)O)cc1
REMARK SMILES IDX 5 1 6 2 7 3 8 4 14 5 15 6 4 7 2 8 1 9 3 10 9 11 10 12 11 13
REMARK SMILES IDX 12 14 13 15
REMARK H PARENT 13 16
REMARK Flexibility Score: inf
ROOT
ATOM      1  C   UNL     1      -0.788  -0.730   0.097  1.00  0.00    -0.048 A 
ATOM      2  C   UNL     1       0.100  -0.432   1.137  1.00  0.00     0.004 A 
ATOM      3  C   UNL     1       1.410  -0.035   0.859  1.00  0.00     0.005 A 
ATOM      4  C   UNL     1       1.862   0.072  -0.464  1.00  0.00    -0.034 A 
ATOM      5  C   UNL     1       0.971  -0.231  -1.503  1.00  0.00     0.005 A 
ATOM      6  C   UNL     1      -0.340  -0.628  -1.225  1.00  0.00     0.004 A 
ENDROOT
BRANCH   1   7
ATOM      7  C   UNL     1      -2.207  -1.155   0.396  1.00  0.00     0.038 C 
BRANCH   7   8
ATOM      8  C   UNL     1      -3.260  -0.079   0.067  1.00  0.00    -0.013 C 
ATOM      9  C   UNL     1      -4.665  -0.675   0.190  1.00  0.00     0.008 C 
ATOM     10  C   UNL     1      -3.137   1.143   0.981  1.00  0.00     0.008 C 
ENDBRANCH   7   8
ENDBRANCH   1   7
BRANCH   4  11
ATOM     11  C   UNL     1       3.281   0.503  -0.784  1.00  0.00     0.126 C 
ATOM     12  C   UNL     1       3.568   1.928  -0.304  1.00  0.00     0.025 C 
BRANCH  11  13
ATOM     13  C   UNL     1       4.304  -0.461  -0.213  1.00  0.00     0.310 C 
ATOM     14  O   UNL     1       4.856  -0.391   0.875  1.00  0.00    -0.252 OA
BRANCH  13  15
ATOM     15  O   UNL     1       4.575  -1.490  -1.044  1.00  0.00    -0.481 OA
ATOM     16  H   UNL     1       5.204  -2.044  -0.536  1.00  0.00     0.296 HD
ENDBRANCH  13  15
ENDBRANCH  11  13
ENDBRANCH   4  11
TORSDOF 5
