REMARK SMILES O=C(O)Cc1ccccc1Nc1c(Cl)cccc1Cl
REMARK SMILES IDX 5 1 6 2 7 3 8 4 9 5 10 6 4 7 2 8 1 9 3 10 11 12 12 14 13 15
REMARK SMILES IDX 18 16 14 17 15 18 17 19 19 20 16 21
REMARK H PARENT 3 11 11 13
REMARK Flexibility Score: inf
ROOT
ATOM      1  C   UNL     1      -2.125   0.190   0.180  1.00  0.00    -0.013 A 
ATOM      2  C   UNL     1      -3.270  -0.480  -0.284  1.00  0.00     0.006 A 
ATOM      3  C   UNL     1      -3.177  -1.770  -0.803  1.00  0.00     0.000 A 
ATOM      4  C   UNL     1      -1.941  -2.405  -0.865  1.00  0.00     0.002 A 
ATOM      5  C   UNL     1      -0.796  -1.748  -0.413  1.00  0.00     0.026 A 
ATOM      6  C   UNL     1      -0.867  -0.441   0.092  1.00  0.00     0.042 A 
ENDROOT
BRANCH   1   7
ATOM      7  C   UNL     1      -2.256   1.601   0.707  1.00  0.00     0.160 C 
BRANCH   7   8
ATOM      8  C   UNL     1      -1.820   2.644  -0.291  1.00  0.00     0.307 C 
ATOM      9  O   UNL     1      -2.070   2.679  -1.485  1.00  0.00    -0.252 OA
BRANCH   8  10
ATOM     10  O   UNL     1      -1.140   3.659   0.284  1.00  0.00    -0.481 OA
ATOM     11  H   UNL     1      -0.913   4.232  -0.478  1.00  0.00     0.296 HD
ENDBRANCH   8  10
ENDBRANCH   7   8
ENDBRANCH   1   7
BRANCH   6  12
ATOM     12  N   UNL     1       0.280   0.215   0.623  1.00  0.00    -0.353 N 
ATOM     13  H   UNL     1       0.202   0.178   1.643  1.00  0.00     0.167 HD
BRANCH  12  14
ATOM     14  C   UNL     1       1.635  -0.056   0.263  1.00  0.00     0.076 A 
ATOM     15  C   UNL     1       2.557  -0.452   1.255  1.00  0.00     0.066 A 
ATOM     16  C   UNL     1       2.111   0.059  -1.059  1.00  0.00     0.066 A 
ATOM     17  Cl  UNL     1       2.061  -0.601   2.908  1.00  0.00    -0.082 Cl
ATOM     18  C   UNL     1       3.888  -0.747   0.942  1.00  0.00     0.023 A 
ATOM     19  C   UNL     1       3.444  -0.238  -1.371  1.00  0.00     0.023 A 
ATOM     20  Cl  UNL     1       1.115   0.628  -2.355  1.00  0.00    -0.082 Cl
ATOM     21  C   UNL     1       4.330  -0.644  -0.374  1.00  0.00     0.003 A 
ENDBRANCH  12  14
ENDBRANCH   6  12
TORSDOF 5
