REMARK SMILES COc1ccc2ccc(C(C)C(=O)O)cc2c1
REMARK SMILES IDX 10 1 11 2 9 3 3 4 17 5 4 6 16 7 5 8 15 9 6 10 7 11 8 12 2 13
REMARK SMILES IDX 1 14 12 15 13 16 14 17
REMARK H PARENT 14 18
REMARK Flexibility Score: inf
ROOT
ATOM      1  C   UNL     1       3.128   0.489  -0.180  1.00  0.00     0.126 C 
ATOM      2  C   UNL     1       3.963  -0.286  -1.201  1.00  0.00     0.025 C 
ENDROOT
BRANCH   1   3
ATOM      3  C   UNL     1       1.719  -0.072  -0.063  1.00  0.00    -0.033 A 
ATOM      4  C   UNL     1      -3.113   0.575  -0.535  1.00  0.00     0.119 A 
ATOM      5  C   UNL     1      -1.805   1.061  -0.621  1.00  0.00     0.055 A 
ATOM      6  C   UNL     1      -3.326  -0.738  -0.122  1.00  0.00     0.047 A 
ATOM      7  C   UNL     1      -0.702   0.253  -0.299  1.00  0.00    -0.014 A 
ATOM      8  C   UNL     1      -2.239  -1.556   0.202  1.00  0.00     0.012 A 
ATOM      9  C   UNL     1       0.616   0.738  -0.384  1.00  0.00     0.013 A 
ATOM     10  C   UNL     1      -0.923  -1.075   0.118  1.00  0.00    -0.018 A 
ATOM     11  C   UNL     1       0.176  -1.884   0.440  1.00  0.00     0.009 A 
ATOM     12  C   UNL     1       1.480  -1.389   0.349  1.00  0.00     0.005 A 
BRANCH   4  13
ATOM     13  O   UNL     1      -4.082   1.477  -0.880  1.00  0.00    -0.497 OA
ATOM     14  C   UNL     1      -5.431   1.034  -0.802  1.00  0.00     0.278 C 
ENDBRANCH   4  13
ENDBRANCH   1   3
BRANCH   1  15
ATOM     15  C   UNL     1       3.872   0.538   1.144  1.00  0.00     0.310 C 
ATOM     16  O   UNL     1       3.755  -0.205   2.105  1.00  0.00    -0.252 OA
BRANCH  15  17
ATOM     17  O   UNL     1       4.793   1.527   1.175  1.00  0.00    -0.481 OA
ATOM     18  H   UNL     1       5.195   1.440   2.065  1.00  0.00     0.296 HD
ENDBRANCH  15  17
ENDBRANCH   1  15
TORSDOF 4
