REMARK SMILES CC(C(=O)O)c1cccc(C(=O)c2ccccc2)c1
REMARK SMILES IDX 6 1 7 2 8 3 9 4 10 5 19 6 2 7 1 8 3 9 4 10 5 11 11 13 12 14
REMARK SMILES IDX 13 15 14 16 18 17 15 18 17 19 16 20
REMARK H PARENT 5 12
REMARK Flexibility Score: inf
ROOT
ATOM      1  C   UNL     1      -2.175   0.111   0.618  1.00  0.00    -0.033 A 
ATOM      2  C   UNL     1      -1.950  -0.508   1.857  1.00  0.00     0.004 A 
ATOM      3  C   UNL     1      -0.656  -0.638   2.367  1.00  0.00     0.001 A 
ATOM      4  C   UNL     1       0.434  -0.161   1.641  1.00  0.00     0.012 A 
ATOM      5  C   UNL     1       0.230   0.436   0.393  1.00  0.00     0.023 A 
ATOM      6  C   UNL     1      -1.070   0.584  -0.108  1.00  0.00     0.016 A 
ENDROOT
BRANCH   1   7
ATOM      7  C   UNL     1      -3.591   0.255   0.088  1.00  0.00     0.126 C 
ATOM      8  C   UNL     1      -3.977   1.720  -0.127  1.00  0.00     0.025 C 
BRANCH   7   9
ATOM      9  C   UNL     1      -3.802  -0.547  -1.184  1.00  0.00     0.310 C 
ATOM     10  O   UNL     1      -3.878  -0.119  -2.324  1.00  0.00    -0.252 OA
BRANCH   9  11
ATOM     11  O   UNL     1      -3.906  -1.874  -0.953  1.00  0.00    -0.481 OA
ATOM     12  H   UNL     1      -4.013  -2.259  -1.848  1.00  0.00     0.296 HD
ENDBRANCH   9  11
ENDBRANCH   7   9
ENDBRANCH   1   7
BRANCH   5  13
ATOM     13  C   UNL     1       1.362   0.969  -0.406  1.00  0.00     0.193 C 
ATOM     14  O   UNL     1       1.209   2.012  -1.037  1.00  0.00    -0.289 OA
BRANCH  13  15
ATOM     15  C   UNL     1       2.672   0.272  -0.457  1.00  0.00     0.022 A 
ATOM     16  C   UNL     1       3.833   1.043  -0.594  1.00  0.00     0.012 A 
ATOM     17  C   UNL     1       2.766  -1.125  -0.416  1.00  0.00     0.012 A 
ATOM     18  C   UNL     1       5.081   0.423  -0.655  1.00  0.00     0.001 A 
ATOM     19  C   UNL     1       4.018  -1.741  -0.478  1.00  0.00     0.001 A 
ATOM     20  C   UNL     1       5.173  -0.967  -0.593  1.00  0.00     0.000 A 
ENDBRANCH  13  15
ENDBRANCH   5  13
TORSDOF 5
