REMARK SMILES CN1C(C(=O)Nc2ccccn2)=C(O)c2ccccc2S1(=O)=O
REMARK SMILES IDX 1 1 2 2 3 3 13 4 15 5 16 6 17 7 18 8 19 9 20 10 21 11 22 12
REMARK SMILES IDX 23 13 4 14 5 15 6 16 7 18 8 19 12 20 9 21 11 22 10 23 14 24
REMARK H PARENT 6 17 14 25
REMARK Flexibility Score: inf
ROOT
ATOM      1  C   UNL     1      -0.064  -2.460  -2.080  1.00  0.00     0.164 C 
ATOM      2  N   UNL     1      -0.866  -1.408  -1.416  1.00  0.00    -0.261 N 
ATOM      3  C   UNL     1      -0.280  -0.588  -0.354  1.00  0.00     0.159 C 
ATOM      4  C   UNL     1      -1.111   0.301   0.247  1.00  0.00     0.154 C 
ATOM      5  C   UNL     1      -2.537   0.478  -0.116  1.00  0.00     0.039 A 
ATOM      6  C   UNL     1      -3.494   0.926   0.808  1.00  0.00     0.013 A 
ATOM      7  C   UNL     1      -4.826   1.122   0.423  1.00  0.00     0.001 A 
ATOM      8  C   UNL     1      -5.226   0.861  -0.887  1.00  0.00     0.001 A 
ATOM      9  C   UNL     1      -4.300   0.391  -1.812  1.00  0.00     0.023 A 
ATOM     10  C   UNL     1      -2.971   0.215  -1.414  1.00  0.00     0.099 A 
ATOM     11  S   UNL     1      -1.797  -0.487  -2.515  1.00  0.00     0.265 S 
ATOM     12  O   UNL     1      -0.987   0.590  -3.042  1.00  0.00    -0.201 OA
ATOM     13  O   UNL     1      -2.514  -1.396  -3.385  1.00  0.00    -0.201 OA
ENDROOT
BRANCH   3  14
ATOM     14  C   UNL     1       1.182  -0.785   0.058  1.00  0.00     0.277 C 
ATOM     15  O   UNL     1       1.809  -1.782  -0.294  1.00  0.00    -0.267 OA
ATOM     16  N   UNL     1       1.716   0.226   0.815  1.00  0.00    -0.305 N 
ATOM     17  H   UNL     1       1.105   0.980   1.111  1.00  0.00     0.171 HD
BRANCH  16  18
ATOM     18  C   UNL     1       3.008   0.369   1.318  1.00  0.00     0.132 A 
ATOM     19  C   UNL     1       4.042  -0.529   1.091  1.00  0.00     0.047 A 
ATOM     20  N   UNL     1       3.171   1.489   2.058  1.00  0.00    -0.239 NA
ATOM     21  C   UNL     1       5.294  -0.266   1.647  1.00  0.00     0.005 A 
ATOM     22  C   UNL     1       4.395   1.719   2.583  1.00  0.00     0.113 A 
ATOM     23  C   UNL     1       5.479   0.879   2.408  1.00  0.00     0.020 A 
ENDBRANCH  16  18
ENDBRANCH   3  14
BRANCH   4  24
ATOM     24  O   UNL     1      -0.659   1.162   1.239  1.00  0.00    -0.505 OA
ATOM     25  H   UNL     1      -1.246   1.942   1.273  1.00  0.00     0.293 HD
ENDBRANCH   4  24
TORSDOF 3
