REMARK SMILES CC(=O)Nc1ccc(O)cc1
REMARK SMILES IDX 5 1 6 2 7 3 8 4 10 5 11 6 4 7 1 8 2 9 3 10 9 12
REMARK H PARENT 4 11 9 13
REMARK Flexibility Score: inf
ROOT
ATOM      1  C   UNL     1      -0.028   0.218   0.036  1.00  0.00     0.041 A 
ATOM      2  C   UNL     1      -0.668   1.457   0.178  1.00  0.00     0.030 A 
ATOM      3  C   UNL     1      -2.057   1.559   0.064  1.00  0.00     0.048 A 
ATOM      4  C   UNL     1      -2.810   0.422  -0.191  1.00  0.00     0.115 A 
ATOM      5  C   UNL     1      -2.196  -0.816  -0.334  1.00  0.00     0.048 A 
ATOM      6  C   UNL     1      -0.804  -0.916  -0.220  1.00  0.00     0.030 A 
ENDROOT
BRANCH   1   7
ATOM      7  N   UNL     1       1.376   0.200   0.166  1.00  0.00    -0.326 N 
ATOM      8  C   UNL     1       3.666  -0.515   0.255  1.00  0.00     0.114 C 
ATOM      9  C   UNL     1       2.218  -0.891   0.058  1.00  0.00     0.221 C 
ATOM     10  O   UNL     1       1.902  -2.049  -0.192  1.00  0.00    -0.275 OA
ATOM     11  H   UNL     1       1.811   1.094   0.352  1.00  0.00     0.169 HD
ENDBRANCH   1   7
BRANCH   4  12
ATOM     12  O   UNL     1      -4.161   0.563  -0.295  1.00  0.00    -0.508 OA
ATOM     13  H   UNL     1      -4.549  -0.310  -0.474  1.00  0.00     0.293 HD
ENDBRANCH   4  12
TORSDOF 2
