REMARK SMILES Cn1c(=O)c2c(ncn2C)n(C)c1=O
REMARK SMILES IDX 10 1 9 2 8 3 7 4 6 5 5 6 3 7 4 8 2 9 13 10 14 11 11 12 12 13
REMARK SMILES IDX 1 14
REMARK H PARENT
REMARK Flexibility Score: inf
ROOT
ATOM      1  C   UNL     1       3.267   0.613  -0.236  1.00  0.00     0.151 C 
ATOM      2  N   UNL     1       2.126  -0.267  -0.267  1.00  0.00    -0.328 N 
ATOM      3  C   UNL     1       2.151  -1.616  -0.501  1.00  0.00     0.202 A 
ATOM      4  N   UNL     1       0.941  -2.139  -0.463  1.00  0.00    -0.218 NA
ATOM      5  C   UNL     1       0.124  -1.082  -0.198  1.00  0.00     0.167 A 
ATOM      6  C   UNL     1       0.821   0.082  -0.072  1.00  0.00     0.152 A 
ATOM      7  C   UNL     1       0.205   1.332   0.206  1.00  0.00     0.282 C 
ATOM      8  O   UNL     1       0.843   2.375   0.318  1.00  0.00    -0.267 OA
ATOM      9  N   UNL     1      -1.183   1.235   0.334  1.00  0.00    -0.261 N 
ATOM     10  C   UNL     1      -1.940   0.051   0.211  1.00  0.00     0.332 C 
ATOM     11  O   UNL     1      -3.168   0.066   0.342  1.00  0.00    -0.247 OA
ATOM     12  N   UNL     1      -1.242  -1.126  -0.063  1.00  0.00    -0.279 N 
ATOM     13  C   UNL     1      -1.946  -2.388  -0.205  1.00  0.00     0.157 C 
ATOM     14  C   UNL     1      -1.930   2.445   0.619  1.00  0.00     0.159 C 
ENDROOT
TORSDOF 0
