MODEL 1
REMARK VINA RESULT:      -8.2      0.000      0.000
REMARK SMILES COc1ccc2c(C)c(CC(=O)O)n(C(=O)c3ccc(Cl)cc3)c2c1
REMARK SMILES IDX 3 1 25 2 24 3 6 4 5 5 4 6 7 7 9 8 14 9 8 10 2 11 1 12 15 13
REMARK SMILES IDX 16 14 17 15 18 16 23 17 19 18 22 19 20 20 21 21 10 22 11 23
REMARK SMILES IDX 12 24 13 25
REMARK H PARENT 13 26
REMARK Flexibility Score: inf
ROOT
ATOM      1  C   UNL     1      25.316   3.775  34.253  1.00  0.00     0.120 A 
ATOM      2  C   UNL     1      24.207   3.336  33.523  1.00  0.00     0.073 A 
ATOM      3  C   UNL     1      23.540   2.156  33.929  1.00  0.00     0.060 A 
ATOM      4  C   UNL     1      23.959   1.440  35.050  1.00  0.00     0.004 A 
ATOM      5  C   UNL     1      25.074   1.902  35.778  1.00  0.00     0.014 A 
ATOM      6  C   UNL     1      25.739   3.062  35.371  1.00  0.00     0.047 A 
ATOM      7  C   UNL     1      23.104   0.312  35.190  1.00  0.00    -0.021 A 
ATOM      8  C   UNL     1      22.192   0.347  34.141  1.00  0.00     0.041 A 
ATOM      9  N   UNL     1      22.396   1.530  33.419  1.00  0.00    -0.279 N 
ATOM     10  C   UNL     1      23.235  -0.740  36.239  1.00  0.00     0.047 C 
ENDROOT
BRANCH   1  11
ATOM     11  O   UNL     1      26.063   4.890  33.977  1.00  0.00    -0.497 OA
ATOM     12  C   UNL     1      27.128   5.186  34.873  1.00  0.00     0.278 C 
ENDBRANCH   1  11
BRANCH   9  13
ATOM     13  C   UNL     1      21.622   2.031  32.338  1.00  0.00     0.262 C 
ATOM     14  O   UNL     1      20.461   2.369  32.562  1.00  0.00    -0.268 OA
BRANCH  13  15
ATOM     15  C   UNL     1      22.096   2.150  30.942  1.00  0.00     0.040 A 
ATOM     16  C   UNL     1      21.552   1.341  29.940  1.00  0.00     0.015 A 
ATOM     17  C   UNL     1      23.040   3.132  30.621  1.00  0.00     0.015 A 
ATOM     18  C   UNL     1      21.991   1.482  28.621  1.00  0.00     0.021 A 
ATOM     19  C   UNL     1      23.478   3.269  29.301  1.00  0.00     0.021 A 
ATOM     20  C   UNL     1      22.955   2.440  28.309  1.00  0.00     0.041 A 
ATOM     21  Cl  UNL     1      23.500   2.605  26.685  1.00  0.00    -0.084 Cl
ENDBRANCH  13  15
ENDBRANCH   9  13
BRANCH   8  22
ATOM     22  C   UNL     1      21.228  -0.742  33.740  1.00  0.00     0.177 C 
BRANCH  22  23
ATOM     23  C   UNL     1      20.078  -0.891  34.711  1.00  0.00     0.309 C 
ATOM     24  O   UNL     1      20.104  -1.288  35.863  1.00  0.00    -0.252 OA
BRANCH  23  25
ATOM     25  O   UNL     1      18.907  -0.510  34.155  1.00  0.00    -0.481 OA
ATOM     26  H   UNL     1      18.225  -0.892  34.745  1.00  0.00     0.296 HD
ENDBRANCH  23  25
ENDBRANCH  22  23
ENDBRANCH   8  22
TORSDOF 6
ENDMDL
MODEL 2
REMARK VINA RESULT:      -8.0     10.209     12.002
REMARK SMILES COc1ccc2c(C)c(CC(=O)O)n(C(=O)c3ccc(Cl)cc3)c2c1
REMARK SMILES IDX 3 1 25 2 24 3 6 4 5 5 4 6 7 7 9 8 14 9 8 10 2 11 1 12 15 13
REMARK SMILES IDX 16 14 17 15 18 16 23 17 19 18 22 19 20 20 21 21 10 22 11 23
REMARK SMILES IDX 12 24 13 25
REMARK H PARENT 13 26
REMARK Flexibility Score: inf
ROOT
ATOM      1  C   UNL     1      12.499   9.696  28.763  1.00  0.00     0.120 A 
ATOM      2  C   UNL     1      12.295   8.318  28.637  1.00  0.00     0.073 A 
ATOM      3  C   UNL     1      12.352   7.506  29.794  1.00  0.00     0.060 A 
ATOM      4  C   UNL     1      12.590   8.058  31.052  1.00  0.00     0.004 A 
ATOM      5  C   UNL     1      12.788   9.450  31.161  1.00  0.00     0.014 A 
ATOM      6  C   UNL     1      12.740  10.251  30.017  1.00  0.00     0.047 A 
ATOM      7  C   UNL     1      12.600   6.996  31.999  1.00  0.00    -0.021 A 
ATOM      8  C   UNL     1      12.388   5.813  31.300  1.00  0.00     0.041 A 
ATOM      9  N   UNL     1      12.141   6.131  29.959  1.00  0.00    -0.279 N 
ATOM     10  C   UNL     1      12.866   7.149  33.458  1.00  0.00     0.047 C 
ENDROOT
BRANCH   1  11
ATOM     11  O   UNL     1      12.480  10.604  27.737  1.00  0.00    -0.497 OA
ATOM     12  C   UNL     1      11.397  10.510  26.819  1.00  0.00     0.278 C 
ENDBRANCH   1  11
BRANCH   9  13
ATOM     13  C   UNL     1      11.765   5.247  28.912  1.00  0.00     0.262 C 
ATOM     14  O   UNL     1      10.638   5.359  28.433  1.00  0.00    -0.268 OA
BRANCH  13  15
ATOM     15  C   UNL     1      12.620   4.171  28.366  1.00  0.00     0.040 A 
ATOM     16  C   UNL     1      12.056   2.953  27.973  1.00  0.00     0.015 A 
ATOM     17  C   UNL     1      13.986   4.409  28.178  1.00  0.00     0.015 A 
ATOM     18  C   UNL     1      12.872   1.954  27.436  1.00  0.00     0.021 A 
ATOM     19  C   UNL     1      14.799   3.407  27.643  1.00  0.00     0.021 A 
ATOM     20  C   UNL     1      14.239   2.183  27.278  1.00  0.00     0.041 A 
ATOM     21  Cl  UNL     1      15.241   0.947  26.625  1.00  0.00    -0.084 Cl
ENDBRANCH  13  15
ENDBRANCH   9  13
BRANCH   8  22
ATOM     22  C   UNL     1      12.526   4.408  31.832  1.00  0.00     0.177 C 
BRANCH  22  23
ATOM     23  C   UNL     1      13.960   3.926  31.843  1.00  0.00     0.309 C 
ATOM     24  O   UNL     1      14.386   2.817  32.115  1.00  0.00    -0.252 OA
BRANCH  23  25
ATOM     25  O   UNL     1      14.816   4.910  31.488  1.00  0.00    -0.481 OA
ATOM     26  H   UNL     1      15.146   4.636  30.607  1.00  0.00     0.296 HD
ENDBRANCH  23  25
ENDBRANCH  22  23
ENDBRANCH   8  22
TORSDOF 6
ENDMDL
MODEL 3
REMARK VINA RESULT:      -8.0      3.041      5.554
REMARK SMILES COc1ccc2c(C)c(CC(=O)O)n(C(=O)c3ccc(Cl)cc3)c2c1
REMARK SMILES IDX 3 1 25 2 24 3 6 4 5 5 4 6 7 7 9 8 14 9 8 10 2 11 1 12 15 13
REMARK SMILES IDX 16 14 17 15 18 16 23 17 19 18 22 19 20 20 21 21 10 22 11 23
REMARK SMILES IDX 12 24 13 25
REMARK H PARENT 13 26
REMARK Flexibility Score: inf
ROOT
ATOM      1  C   UNL     1      24.444   3.705  35.705  1.00  0.00     0.120 A 
ATOM      2  C   UNL     1      23.581   2.794  35.086  1.00  0.00     0.073 A 
ATOM      3  C   UNL     1      23.551   2.726  33.673  1.00  0.00     0.060 A 
ATOM      4  C   UNL     1      24.376   3.536  32.895  1.00  0.00     0.004 A 
ATOM      5  C   UNL     1      25.245   4.444  33.535  1.00  0.00     0.014 A 
ATOM      6  C   UNL     1      25.268   4.517  34.931  1.00  0.00     0.047 A 
ATOM      7  C   UNL     1      24.108   3.245  31.528  1.00  0.00    -0.021 A 
ATOM      8  C   UNL     1      23.110   2.278  31.497  1.00  0.00     0.041 A 
ATOM      9  N   UNL     1      22.832   1.888  32.813  1.00  0.00    -0.279 N 
ATOM     10  C   UNL     1      24.745   3.925  30.364  1.00  0.00     0.047 C 
ENDROOT
BRANCH   1  11
ATOM     11  O   UNL     1      24.577   3.887  37.056  1.00  0.00    -0.497 OA
ATOM     12  C   UNL     1      25.510   4.874  37.481  1.00  0.00     0.278 C 
ENDBRANCH   1  11
BRANCH   9  13
ATOM     13  C   UNL     1      21.963   0.851  33.245  1.00  0.00     0.262 C 
ATOM     14  O   UNL     1      20.957   0.619  32.577  1.00  0.00    -0.268 OA
BRANCH  13  15
ATOM     15  C   UNL     1      22.157   0.038  34.465  1.00  0.00     0.040 A 
ATOM     16  C   UNL     1      23.344   0.136  35.198  1.00  0.00     0.015 A 
ATOM     17  C   UNL     1      21.112  -0.774  34.921  1.00  0.00     0.015 A 
ATOM     18  C   UNL     1      23.503  -0.619  36.363  1.00  0.00     0.021 A 
ATOM     19  C   UNL     1      21.275  -1.529  36.085  1.00  0.00     0.021 A 
ATOM     20  C   UNL     1      22.471  -1.451  36.798  1.00  0.00     0.041 A 
ATOM     21  Cl  UNL     1      22.675  -2.386  38.227  1.00  0.00    -0.084 Cl
ENDBRANCH  13  15
ENDBRANCH   9  13
BRANCH   8  22
ATOM     22  C   UNL     1      22.342   1.806  30.286  1.00  0.00     0.177 C 
BRANCH  22  23
ATOM     23  C   UNL     1      21.149   2.682  29.974  1.00  0.00     0.309 C 
ATOM     24  O   UNL     1      21.125   3.752  29.390  1.00  0.00    -0.252 OA
BRANCH  23  25
ATOM     25  O   UNL     1      20.000   2.133  30.427  1.00  0.00    -0.481 OA
ATOM     26  H   UNL     1      19.526   2.881  30.848  1.00  0.00     0.296 HD
ENDBRANCH  23  25
ENDBRANCH  22  23
ENDBRANCH   8  22
TORSDOF 6
ENDMDL
MODEL 4
REMARK VINA RESULT:      -7.8      2.322      3.448
REMARK SMILES COc1ccc2c(C)c(CC(=O)O)n(C(=O)c3ccc(Cl)cc3)c2c1
REMARK SMILES IDX 3 1 25 2 24 3 6 4 5 5 4 6 7 7 9 8 14 9 8 10 2 11 1 12 15 13
REMARK SMILES IDX 16 14 17 15 18 16 23 17 19 18 22 19 20 20 21 21 10 22 11 23
REMARK SMILES IDX 12 24 13 25
REMARK H PARENT 13 26
REMARK Flexibility Score: inf
ROOT
ATOM      1  C   UNL     1      28.084   4.145  32.875  1.00  0.00     0.120 A 
ATOM      2  C   UNL     1      26.991   3.282  32.740  1.00  0.00     0.073 A 
ATOM      3  C   UNL     1      26.064   3.175  33.803  1.00  0.00     0.060 A 
ATOM      4  C   UNL     1      26.214   3.925  34.969  1.00  0.00     0.004 A 
ATOM      5  C   UNL     1      27.318   4.794  35.086  1.00  0.00     0.014 A 
ATOM      6  C   UNL     1      28.239   4.893  34.038  1.00  0.00     0.047 A 
ATOM      7  C   UNL     1      25.141   3.591  35.842  1.00  0.00    -0.021 A 
ATOM      8  C   UNL     1      24.368   2.629  35.203  1.00  0.00     0.041 A 
ATOM      9  N   UNL     1      24.877   2.440  33.912  1.00  0.00    -0.279 N 
ATOM     10  C   UNL     1      24.951   4.136  37.217  1.00  0.00     0.047 C 
ENDROOT
BRANCH   1  11
ATOM     11  O   UNL     1      29.062   4.347  31.938  1.00  0.00    -0.497 OA
ATOM     12  C   UNL     1      29.798   5.561  32.031  1.00  0.00     0.278 C 
ENDBRANCH   1  11
BRANCH   9  13
ATOM     13  C   UNL     1      24.334   1.637  32.874  1.00  0.00     0.262 C 
ATOM     14  O   UNL     1      24.754   0.487  32.748  1.00  0.00    -0.268 OA
BRANCH  13  15
ATOM     15  C   UNL     1      23.315   2.085  31.901  1.00  0.00     0.040 A 
ATOM     16  C   UNL     1      23.664   2.951  30.860  1.00  0.00     0.015 A 
ATOM     17  C   UNL     1      22.014   1.576  31.988  1.00  0.00     0.015 A 
ATOM     18  C   UNL     1      22.697   3.347  29.934  1.00  0.00     0.021 A 
ATOM     19  C   UNL     1      21.048   1.976  31.061  1.00  0.00     0.021 A 
ATOM     20  C   UNL     1      21.393   2.863  30.041  1.00  0.00     0.041 A 
ATOM     21  Cl  UNL     1      20.202   3.360  28.903  1.00  0.00    -0.084 Cl
ENDBRANCH  13  15
ENDBRANCH   9  13
BRANCH   8  22
ATOM     22  C   UNL     1      23.253   1.812  35.808  1.00  0.00     0.177 C 
BRANCH  22  23
ATOM     23  C   UNL     1      23.465   0.324  35.646  1.00  0.00     0.309 C 
ATOM     24  O   UNL     1      24.386  -0.361  36.056  1.00  0.00    -0.252 OA
BRANCH  23  25
ATOM     25  O   UNL     1      22.456  -0.247  34.951  1.00  0.00    -0.481 OA
ATOM     26  H   UNL     1      22.051  -0.874  35.586  1.00  0.00     0.296 HD
ENDBRANCH  23  25
ENDBRANCH  22  23
ENDBRANCH   8  22
TORSDOF 6
ENDMDL
MODEL 5
REMARK VINA RESULT:      -7.5      1.424      4.685
REMARK SMILES COc1ccc2c(C)c(CC(=O)O)n(C(=O)c3ccc(Cl)cc3)c2c1
REMARK SMILES IDX 3 1 25 2 24 3 6 4 5 5 4 6 7 7 9 8 14 9 8 10 2 11 1 12 15 13
REMARK SMILES IDX 16 14 17 15 18 16 23 17 19 18 22 19 20 20 21 21 10 22 11 23
REMARK SMILES IDX 12 24 13 25
REMARK H PARENT 13 26
REMARK Flexibility Score: inf
ROOT
ATOM      1  C   UNL     1      21.703  -1.271  35.573  1.00  0.00     0.120 A 
ATOM      2  C   UNL     1      21.455  -0.356  34.543  1.00  0.00     0.073 A 
ATOM      3  C   UNL     1      22.385   0.684  34.309  1.00  0.00     0.060 A 
ATOM      4  C   UNL     1      23.545   0.800  35.074  1.00  0.00     0.004 A 
ATOM      5  C   UNL     1      23.782  -0.134  36.103  1.00  0.00     0.014 A 
ATOM      6  C   UNL     1      22.859  -1.157  36.339  1.00  0.00     0.047 A 
ATOM      7  C   UNL     1      24.261   1.938  34.609  1.00  0.00    -0.021 A 
ATOM      8  C   UNL     1      23.515   2.509  33.584  1.00  0.00     0.041 A 
ATOM      9  N   UNL     1      22.409   1.688  33.332  1.00  0.00    -0.279 N 
ATOM     10  C   UNL     1      25.539   2.445  35.187  1.00  0.00     0.047 C 
ENDROOT
BRANCH   1  11
ATOM     11  O   UNL     1      20.895  -2.321  35.919  1.00  0.00    -0.497 OA
ATOM     12  C   UNL     1      21.248  -3.040  37.095  1.00  0.00     0.278 C 
ENDBRANCH   1  11
BRANCH   9  13
ATOM     13  C   UNL     1      21.444   1.824  32.300  1.00  0.00     0.262 C 
ATOM     14  O   UNL     1      20.254   1.769  32.605  1.00  0.00    -0.268 OA
BRANCH  13  15
ATOM     15  C   UNL     1      21.758   1.997  30.865  1.00  0.00     0.040 A 
ATOM     16  C   UNL     1      22.616   1.104  30.217  1.00  0.00     0.015 A 
ATOM     17  C   UNL     1      21.129   3.019  30.145  1.00  0.00     0.015 A 
ATOM     18  C   UNL     1      22.884   1.265  28.855  1.00  0.00     0.021 A 
ATOM     19  C   UNL     1      21.401   3.179  28.784  1.00  0.00     0.021 A 
ATOM     20  C   UNL     1      22.281   2.304  28.146  1.00  0.00     0.041 A 
ATOM     21  Cl  UNL     1      22.620   2.504  26.472  1.00  0.00    -0.084 Cl
ENDBRANCH  13  15
ENDBRANCH   9  13
BRANCH   8  22
ATOM     22  C   UNL     1      23.752   3.846  32.926  1.00  0.00     0.177 C 
BRANCH  22  23
ATOM     23  C   UNL     1      24.917   3.825  31.962  1.00  0.00     0.309 C 
ATOM     24  O   UNL     1      26.092   3.600  32.196  1.00  0.00    -0.252 OA
BRANCH  23  25
ATOM     25  O   UNL     1      24.520   4.094  30.699  1.00  0.00    -0.481 OA
ATOM     26  H   UNL     1      24.482   5.073  30.662  1.00  0.00     0.296 HD
ENDBRANCH  23  25
ENDBRANCH  22  23
ENDBRANCH   8  22
TORSDOF 6
ENDMDL
MODEL 6
REMARK VINA RESULT:      -7.4      9.156     11.681
REMARK SMILES COc1ccc2c(C)c(CC(=O)O)n(C(=O)c3ccc(Cl)cc3)c2c1
REMARK SMILES IDX 3 1 25 2 24 3 6 4 5 5 4 6 7 7 9 8 14 9 8 10 2 11 1 12 15 13
REMARK SMILES IDX 16 14 17 15 18 16 23 17 19 18 22 19 20 20 21 21 10 22 11 23
REMARK SMILES IDX 12 24 13 25
REMARK H PARENT 13 26
REMARK Flexibility Score: inf
ROOT
ATOM      1  C   UNL     1      16.112   1.532  28.056  1.00  0.00     0.120 A 
ATOM      2  C   UNL     1      15.477   2.289  29.045  1.00  0.00     0.073 A 
ATOM      3  C   UNL     1      14.125   2.665  28.862  1.00  0.00     0.060 A 
ATOM      4  C   UNL     1      13.417   2.278  27.725  1.00  0.00     0.004 A 
ATOM      5  C   UNL     1      14.071   1.509  26.741  1.00  0.00     0.014 A 
ATOM      6  C   UNL     1      15.409   1.146  26.918  1.00  0.00     0.047 A 
ATOM      7  C   UNL     1      12.103   2.813  27.828  1.00  0.00    -0.021 A 
ATOM      8  C   UNL     1      12.038   3.534  29.015  1.00  0.00     0.041 A 
ATOM      9  N   UNL     1      13.249   3.366  29.699  1.00  0.00    -0.279 N 
ATOM     10  C   UNL     1      11.034   2.671  26.797  1.00  0.00     0.047 C 
ENDROOT
BRANCH   1  11
ATOM     11  O   UNL     1      17.412   1.102  28.090  1.00  0.00    -0.497 OA
ATOM     12  C   UNL     1      18.387   2.045  28.520  1.00  0.00     0.278 C 
ENDBRANCH   1  11
BRANCH   9  13
ATOM     13  C   UNL     1      13.581   3.830  31.000  1.00  0.00     0.262 C 
ATOM     14  O   UNL     1      13.918   3.001  31.844  1.00  0.00    -0.268 OA
BRANCH  13  15
ATOM     15  C   UNL     1      13.525   5.242  31.435  1.00  0.00     0.040 A 
ATOM     16  C   UNL     1      14.366   6.195  30.852  1.00  0.00     0.015 A 
ATOM     17  C   UNL     1      12.571   5.629  32.382  1.00  0.00     0.015 A 
ATOM     18  C   UNL     1      14.285   7.530  31.255  1.00  0.00     0.021 A 
ATOM     19  C   UNL     1      12.493   6.965  32.785  1.00  0.00     0.021 A 
ATOM     20  C   UNL     1      13.354   7.908  32.223  1.00  0.00     0.041 A 
ATOM     21  Cl  UNL     1      13.263   9.552  32.723  1.00  0.00    -0.084 Cl
ENDBRANCH  13  15
ENDBRANCH   9  13
BRANCH   8  22
ATOM     22  C   UNL     1      10.928   4.455  29.457  1.00  0.00     0.177 C 
BRANCH  22  23
ATOM     23  C   UNL     1      11.173   5.895  29.064  1.00  0.00     0.309 C 
ATOM     24  O   UNL     1      10.656   6.903  29.514  1.00  0.00    -0.252 OA
BRANCH  23  25
ATOM     25  O   UNL     1      12.103   5.991  28.089  1.00  0.00    -0.481 OA
ATOM     26  H   UNL     1      12.733   6.664  28.422  1.00  0.00     0.296 HD
ENDBRANCH  23  25
ENDBRANCH  22  23
ENDBRANCH   8  22
TORSDOF 6
ENDMDL
MODEL 7
REMARK VINA RESULT:      -7.4      3.012      6.167
REMARK SMILES COc1ccc2c(C)c(CC(=O)O)n(C(=O)c3ccc(Cl)cc3)c2c1
REMARK SMILES IDX 3 1 25 2 24 3 6 4 5 5 4 6 7 7 9 8 14 9 8 10 2 11 1 12 15 13
REMARK SMILES IDX 16 14 17 15 18 16 23 17 19 18 22 19 20 20 21 21 10 22 11 23
REMARK SMILES IDX 12 24 13 25
REMARK H PARENT 13 26
REMARK Flexibility Score: inf
ROOT
ATOM      1  C   UNL     1      22.902  -0.771  35.873  1.00  0.00     0.120 A 
ATOM      2  C   UNL     1      23.756   0.078  35.161  1.00  0.00     0.073 A 
ATOM      3  C   UNL     1      23.245   0.801  34.058  1.00  0.00     0.060 A 
ATOM      4  C   UNL     1      21.906   0.693  33.683  1.00  0.00     0.004 A 
ATOM      5  C   UNL     1      21.058  -0.163  34.415  1.00  0.00     0.014 A 
ATOM      6  C   UNL     1      21.566  -0.884  35.500  1.00  0.00     0.047 A 
ATOM      7  C   UNL     1      21.704   1.523  32.545  1.00  0.00    -0.021 A 
ATOM      8  C   UNL     1      22.927   2.106  32.234  1.00  0.00     0.041 A 
ATOM      9  N   UNL     1      23.854   1.740  33.217  1.00  0.00    -0.279 N 
ATOM     10  C   UNL     1      20.421   1.662  31.800  1.00  0.00     0.047 C 
ENDROOT
BRANCH   1  11
ATOM     11  O   UNL     1      23.254  -1.536  36.953  1.00  0.00    -0.497 OA
ATOM     12  C   UNL     1      22.210  -1.901  37.848  1.00  0.00     0.278 C 
ENDBRANCH   1  11
BRANCH   9  13
ATOM     13  C   UNL     1      25.192   2.195  33.361  1.00  0.00     0.262 C 
ATOM     14  O   UNL     1      26.077   1.603  32.743  1.00  0.00    -0.268 OA
BRANCH  13  15
ATOM     15  C   UNL     1      25.617   3.315  34.227  1.00  0.00     0.040 A 
ATOM     16  C   UNL     1      24.780   3.776  35.248  1.00  0.00     0.015 A 
ATOM     17  C   UNL     1      26.896   3.860  34.064  1.00  0.00     0.015 A 
ATOM     18  C   UNL     1      25.205   4.818  36.075  1.00  0.00     0.021 A 
ATOM     19  C   UNL     1      27.318   4.904  34.892  1.00  0.00     0.021 A 
ATOM     20  C   UNL     1      26.468   5.381  35.891  1.00  0.00     0.041 A 
ATOM     21  Cl  UNL     1      26.984   6.670  36.905  1.00  0.00    -0.084 Cl
ENDBRANCH  13  15
ENDBRANCH   9  13
BRANCH   8  22
ATOM     22  C   UNL     1      23.267   2.891  30.991  1.00  0.00     0.177 C 
BRANCH  22  23
ATOM     23  C   UNL     1      22.586   2.350  29.753  1.00  0.00     0.309 C 
ATOM     24  O   UNL     1      22.673   1.237  29.265  1.00  0.00    -0.252 OA
BRANCH  23  25
ATOM     25  O   UNL     1      21.791   3.279  29.179  1.00  0.00    -0.481 OA
ATOM     26  H   UNL     1      20.885   3.021  29.449  1.00  0.00     0.296 HD
ENDBRANCH  23  25
ENDBRANCH  22  23
ENDBRANCH   8  22
TORSDOF 6
ENDMDL
MODEL 8
REMARK VINA RESULT:      -7.3      2.964      6.728
REMARK SMILES COc1ccc2c(C)c(CC(=O)O)n(C(=O)c3ccc(Cl)cc3)c2c1
REMARK SMILES IDX 3 1 25 2 24 3 6 4 5 5 4 6 7 7 9 8 14 9 8 10 2 11 1 12 15 13
REMARK SMILES IDX 16 14 17 15 18 16 23 17 19 18 22 19 20 20 21 21 10 22 11 23
REMARK SMILES IDX 12 24 13 25
REMARK H PARENT 13 26
REMARK Flexibility Score: inf
ROOT
ATOM      1  C   UNL     1      21.508   2.399  30.894  1.00  0.00     0.120 A 
ATOM      2  C   UNL     1      21.977   2.263  32.205  1.00  0.00     0.073 A 
ATOM      3  C   UNL     1      23.285   2.702  32.517  1.00  0.00     0.060 A 
ATOM      4  C   UNL     1      24.101   3.282  31.546  1.00  0.00     0.004 A 
ATOM      5  C   UNL     1      23.610   3.416  30.231  1.00  0.00     0.014 A 
ATOM      6  C   UNL     1      22.321   2.974  29.922  1.00  0.00     0.047 A 
ATOM      7  C   UNL     1      25.344   3.605  32.158  1.00  0.00    -0.021 A 
ATOM      8  C   UNL     1      25.272   3.199  33.486  1.00  0.00     0.041 A 
ATOM      9  N   UNL     1      23.975   2.731  33.735  1.00  0.00    -0.279 N 
ATOM     10  C   UNL     1      26.518   4.201  31.458  1.00  0.00     0.047 C 
ENDROOT
BRANCH   1  11
ATOM     11  O   UNL     1      20.272   2.014  30.444  1.00  0.00    -0.497 OA
ATOM     12  C   UNL     1      19.932   2.383  29.113  1.00  0.00     0.278 C 
ENDBRANCH   1  11
BRANCH   9  13
ATOM     13  C   UNL     1      23.424   2.322  34.978  1.00  0.00     0.262 C 
ATOM     14  O   UNL     1      23.336   3.157  35.877  1.00  0.00    -0.268 OA
BRANCH  13  15
ATOM     15  C   UNL     1      22.970   0.951  35.293  1.00  0.00     0.040 A 
ATOM     16  C   UNL     1      23.584   0.220  36.316  1.00  0.00     0.015 A 
ATOM     17  C   UNL     1      21.872   0.418  34.608  1.00  0.00     0.015 A 
ATOM     18  C   UNL     1      23.128  -1.065  36.619  1.00  0.00     0.021 A 
ATOM     19  C   UNL     1      21.420  -0.868  34.912  1.00  0.00     0.021 A 
ATOM     20  C   UNL     1      22.053  -1.606  35.913  1.00  0.00     0.041 A 
ATOM     21  Cl  UNL     1      21.501  -3.192  36.283  1.00  0.00    -0.084 Cl
ENDBRANCH  13  15
ENDBRANCH   9  13
BRANCH   8  22
ATOM     22  C   UNL     1      26.408   3.132  34.477  1.00  0.00     0.177 C 
BRANCH  22  23
ATOM     23  C   UNL     1      26.762   4.486  35.051  1.00  0.00     0.309 C 
ATOM     24  O   UNL     1      27.727   5.187  34.800  1.00  0.00    -0.252 OA
BRANCH  23  25
ATOM     25  O   UNL     1      25.838   4.904  35.942  1.00  0.00    -0.481 OA
ATOM     26  H   UNL     1      25.182   5.390  35.399  1.00  0.00     0.296 HD
ENDBRANCH  23  25
ENDBRANCH  22  23
ENDBRANCH   8  22
TORSDOF 6
ENDMDL
MODEL 9
REMARK VINA RESULT:      -7.2      9.884     11.955
REMARK SMILES COc1ccc2c(C)c(CC(=O)O)n(C(=O)c3ccc(Cl)cc3)c2c1
REMARK SMILES IDX 3 1 25 2 24 3 6 4 5 5 4 6 7 7 9 8 14 9 8 10 2 11 1 12 15 13
REMARK SMILES IDX 16 14 17 15 18 16 23 17 19 18 22 19 20 20 21 21 10 22 11 23
REMARK SMILES IDX 12 24 13 25
REMARK H PARENT 13 26
REMARK Flexibility Score: inf
ROOT
ATOM      1  C   UNL     1      14.527   2.543  27.095  1.00  0.00     0.120 A 
ATOM      2  C   UNL     1      13.610   3.499  27.546  1.00  0.00     0.073 A 
ATOM      3  C   UNL     1      13.466   3.710  28.937  1.00  0.00     0.060 A 
ATOM      4  C   UNL     1      14.232   2.995  29.858  1.00  0.00     0.004 A 
ATOM      5  C   UNL     1      15.155   2.040  29.385  1.00  0.00     0.014 A 
ATOM      6  C   UNL     1      15.290   1.826  28.011  1.00  0.00     0.047 A 
ATOM      7  C   UNL     1      13.852   3.420  31.162  1.00  0.00    -0.021 A 
ATOM      8  C   UNL     1      12.848   4.370  31.015  1.00  0.00     0.041 A 
ATOM      9  N   UNL     1      12.675   4.621  29.648  1.00  0.00    -0.279 N 
ATOM     10  C   UNL     1      14.398   2.872  32.437  1.00  0.00     0.047 C 
ENDROOT
BRANCH   1  11
ATOM     11  O   UNL     1      14.769   2.226  25.784  1.00  0.00    -0.497 OA
ATOM     12  C   UNL     1      14.162   1.038  25.289  1.00  0.00     0.278 C 
ENDBRANCH   1  11
BRANCH   9  13
ATOM     13  C   UNL     1      11.837   5.596  29.044  1.00  0.00     0.262 C 
ATOM     14  O   UNL     1      10.889   5.207  28.363  1.00  0.00    -0.268 OA
BRANCH  13  15
ATOM     15  C   UNL     1      12.033   7.058  29.142  1.00  0.00     0.040 A 
ATOM     16  C   UNL     1      10.930   7.916  29.209  1.00  0.00     0.015 A 
ATOM     17  C   UNL     1      13.331   7.570  29.245  1.00  0.00     0.015 A 
ATOM     18  C   UNL     1      11.130   9.293  29.327  1.00  0.00     0.021 A 
ATOM     19  C   UNL     1      13.528   8.948  29.361  1.00  0.00     0.021 A 
ATOM     20  C   UNL     1      12.427   9.804  29.397  1.00  0.00     0.041 A 
ATOM     21  Cl  UNL     1      12.669  11.501  29.534  1.00  0.00    -0.084 Cl
ENDBRANCH  13  15
ENDBRANCH   9  13
BRANCH   8  22
ATOM     22  C   UNL     1      11.983   4.952  32.105  1.00  0.00     0.177 C 
BRANCH  22  23
ATOM     23  C   UNL     1      12.535   6.245  32.663  1.00  0.00     0.309 C 
ATOM     24  O   UNL     1      12.005   7.027  33.433  1.00  0.00    -0.252 OA
BRANCH  23  25
ATOM     25  O   UNL     1      13.782   6.489  32.204  1.00  0.00    -0.481 OA
ATOM     26  H   UNL     1      13.827   7.466  32.136  1.00  0.00     0.296 HD
ENDBRANCH  23  25
ENDBRANCH  22  23
ENDBRANCH   8  22
TORSDOF 6
ENDMDL
