MODEL 1
REMARK VINA RESULT:      -7.4      0.000      0.000
REMARK SMILES CC(C)Cc1ccc(C(C)C(=O)O)cc1
REMARK SMILES IDX 5 1 6 2 7 3 8 4 14 5 15 6 4 7 2 8 1 9 3 10 9 11 10 12 11 13
REMARK SMILES IDX 12 14 13 15
REMARK H PARENT 13 16
REMARK Flexibility Score: inf
ROOT
ATOM      1  C   UNL     1      24.675   2.863  34.429  1.00  0.00    -0.048 A 
ATOM      2  C   UNL     1      24.565   1.871  33.448  1.00  0.00     0.004 A 
ATOM      3  C   UNL     1      23.857   0.694  33.706  1.00  0.00     0.005 A 
ATOM      4  C   UNL     1      23.245   0.483  34.949  1.00  0.00    -0.034 A 
ATOM      5  C   UNL     1      23.360   1.477  35.931  1.00  0.00     0.005 A 
ATOM      6  C   UNL     1      24.068   2.655  35.673  1.00  0.00     0.004 A 
ENDROOT
BRANCH   1   7
ATOM      7  C   UNL     1      25.436   4.139  34.151  1.00  0.00     0.038 C 
BRANCH   7   8
ATOM      8  C   UNL     1      26.729   4.283  34.975  1.00  0.00    -0.013 C 
ATOM      9  C   UNL     1      27.945   4.212  34.048  1.00  0.00     0.008 C 
ATOM     10  C   UNL     1      26.762   5.592  35.768  1.00  0.00     0.008 C 
ENDBRANCH   7   8
ENDBRANCH   1   7
BRANCH   4  11
ATOM     11  C   UNL     1      22.471  -0.788  35.246  1.00  0.00     0.126 C 
ATOM     12  C   UNL     1      22.458  -1.114  36.741  1.00  0.00     0.025 C 
BRANCH  11  13
ATOM     13  C   UNL     1      21.054  -0.722  34.708  1.00  0.00     0.310 C 
ATOM     14  O   UNL     1      20.702  -0.342  33.602  1.00  0.00    -0.252 OA
BRANCH  13  15
ATOM     15  O   UNL     1      20.136  -1.160  35.597  1.00  0.00    -0.481 OA
ATOM     16  H   UNL     1      20.519  -1.995  35.939  1.00  0.00     0.296 HD
ENDBRANCH  13  15
ENDBRANCH  11  13
ENDBRANCH   4  11
TORSDOF 5
ENDMDL
MODEL 2
REMARK VINA RESULT:      -7.2      2.662      6.217
REMARK SMILES CC(C)Cc1ccc(C(C)C(=O)O)cc1
REMARK SMILES IDX 5 1 6 2 7 3 8 4 14 5 15 6 4 7 2 8 1 9 3 10 9 11 10 12 11 13
REMARK SMILES IDX 12 14 13 15
REMARK H PARENT 13 16
REMARK Flexibility Score: inf
ROOT
ATOM      1  C   UNL     1      22.053  -0.408  34.974  1.00  0.00    -0.048 A 
ATOM      2  C   UNL     1      23.190  -0.028  35.697  1.00  0.00     0.004 A 
ATOM      3  C   UNL     1      24.025   0.987  35.223  1.00  0.00     0.005 A 
ATOM      4  C   UNL     1      23.744   1.642  34.016  1.00  0.00    -0.034 A 
ATOM      5  C   UNL     1      22.607   1.256  33.293  1.00  0.00     0.005 A 
ATOM      6  C   UNL     1      21.771   0.241  33.767  1.00  0.00     0.004 A 
ENDROOT
BRANCH   1   7
ATOM      7  C   UNL     1      21.147  -1.503  35.488  1.00  0.00     0.038 C 
BRANCH   7   8
ATOM      8  C   UNL     1      21.636  -2.151  36.798  1.00  0.00    -0.013 C 
ATOM      9  C   UNL     1      20.804  -1.632  37.974  1.00  0.00     0.008 C 
ATOM     10  C   UNL     1      21.557  -3.679  36.746  1.00  0.00     0.008 C 
ENDBRANCH   7   8
ENDBRANCH   1   7
BRANCH   4  11
ATOM     11  C   UNL     1      24.639   2.747  33.487  1.00  0.00     0.126 C 
ATOM     12  C   UNL     1      24.342   3.071  32.021  1.00  0.00     0.025 C 
BRANCH  11  13
ATOM     13  C   UNL     1      24.542   4.003  34.333  1.00  0.00     0.310 C 
ATOM     14  O   UNL     1      25.399   4.862  34.478  1.00  0.00    -0.252 OA
BRANCH  13  15
ATOM     15  O   UNL     1      23.349   4.127  34.953  1.00  0.00    -0.481 OA
ATOM     16  H   UNL     1      22.929   4.891  34.506  1.00  0.00     0.296 HD
ENDBRANCH  13  15
ENDBRANCH  11  13
ENDBRANCH   4  11
TORSDOF 5
ENDMDL
MODEL 3
REMARK VINA RESULT:      -7.1      2.025      2.732
REMARK SMILES CC(C)Cc1ccc(C(C)C(=O)O)cc1
REMARK SMILES IDX 5 1 6 2 7 3 8 4 14 5 15 6 4 7 2 8 1 9 3 10 9 11 10 12 11 13
REMARK SMILES IDX 12 14 13 15
REMARK H PARENT 13 16
REMARK Flexibility Score: inf
ROOT
ATOM      1  C   UNL     1      24.714   3.194  35.416  1.00  0.00    -0.048 A 
ATOM      2  C   UNL     1      23.826   3.749  34.488  1.00  0.00     0.004 A 
ATOM      3  C   UNL     1      23.024   2.926  33.693  1.00  0.00     0.005 A 
ATOM      4  C   UNL     1      23.094   1.531  33.808  1.00  0.00    -0.034 A 
ATOM      5  C   UNL     1      23.988   0.978  34.736  1.00  0.00     0.005 A 
ATOM      6  C   UNL     1      24.789   1.801  35.531  1.00  0.00     0.004 A 
ENDROOT
BRANCH   1   7
ATOM      7  C   UNL     1      25.578   4.083  36.280  1.00  0.00     0.038 C 
BRANCH   7   8
ATOM      8  C   UNL     1      26.380   5.132  35.485  1.00  0.00    -0.013 C 
ATOM      9  C   UNL     1      26.883   6.225  36.432  1.00  0.00     0.008 C 
ATOM     10  C   UNL     1      27.565   4.507  34.744  1.00  0.00     0.008 C 
ENDBRANCH   7   8
ENDBRANCH   1   7
BRANCH   4  11
ATOM     11  C   UNL     1      22.230   0.622  32.953  1.00  0.00     0.126 C 
ATOM     12  C   UNL     1      21.195  -0.136  33.789  1.00  0.00     0.025 C 
BRANCH  11  13
ATOM     13  C   UNL     1      21.547   1.384  31.834  1.00  0.00     0.310 C 
ATOM     14  O   UNL     1      20.492   1.998  31.897  1.00  0.00    -0.252 OA
BRANCH  13  15
ATOM     15  O   UNL     1      22.242   1.351  30.677  1.00  0.00    -0.481 OA
ATOM     16  H   UNL     1      22.903   0.642  30.819  1.00  0.00     0.296 HD
ENDBRANCH  13  15
ENDBRANCH  11  13
ENDBRANCH   4  11
TORSDOF 5
ENDMDL
MODEL 4
REMARK VINA RESULT:      -7.1      3.724      5.802
REMARK SMILES CC(C)Cc1ccc(C(C)C(=O)O)cc1
REMARK SMILES IDX 5 1 6 2 7 3 8 4 14 5 15 6 4 7 2 8 1 9 3 10 9 11 10 12 11 13
REMARK SMILES IDX 12 14 13 15
REMARK H PARENT 13 16
REMARK Flexibility Score: inf
ROOT
ATOM      1  C   UNL     1      23.091   1.915  31.852  1.00  0.00    -0.048 A 
ATOM      2  C   UNL     1      23.109   1.210  33.061  1.00  0.00     0.004 A 
ATOM      3  C   UNL     1      23.910   1.641  34.121  1.00  0.00     0.005 A 
ATOM      4  C   UNL     1      24.711   2.785  33.996  1.00  0.00    -0.034 A 
ATOM      5  C   UNL     1      24.694   3.486  32.783  1.00  0.00     0.005 A 
ATOM      6  C   UNL     1      23.892   3.055  31.722  1.00  0.00     0.004 A 
ENDROOT
BRANCH   1   7
ATOM      7  C   UNL     1      22.221   1.452  30.706  1.00  0.00     0.038 C 
BRANCH   7   8
ATOM      8  C   UNL     1      21.886   2.564  29.693  1.00  0.00    -0.013 C 
ATOM      9  C   UNL     1      22.615   2.298  28.373  1.00  0.00     0.008 C 
ATOM     10  C   UNL     1      20.380   2.673  29.438  1.00  0.00     0.008 C 
ENDBRANCH   7   8
ENDBRANCH   1   7
BRANCH   4  11
ATOM     11  C   UNL     1      25.586   3.268  35.138  1.00  0.00     0.126 C 
ATOM     12  C   UNL     1      26.767   4.105  34.639  1.00  0.00     0.025 C 
BRANCH  11  13
ATOM     13  C   UNL     1      24.788   4.044  36.169  1.00  0.00     0.310 C 
ATOM     14  O   UNL     1      25.122   4.306  37.315  1.00  0.00    -0.252 OA
BRANCH  13  15
ATOM     15  O   UNL     1      23.599   4.474  35.695  1.00  0.00    -0.481 OA
ATOM     16  H   UNL     1      22.998   3.714  35.844  1.00  0.00     0.296 HD
ENDBRANCH  13  15
ENDBRANCH  11  13
ENDBRANCH   4  11
TORSDOF 5
ENDMDL
MODEL 5
REMARK VINA RESULT:      -7.0      3.923      6.123
REMARK SMILES CC(C)Cc1ccc(C(C)C(=O)O)cc1
REMARK SMILES IDX 5 1 6 2 7 3 8 4 14 5 15 6 4 7 2 8 1 9 3 10 9 11 10 12 11 13
REMARK SMILES IDX 12 14 13 15
REMARK H PARENT 13 16
REMARK Flexibility Score: inf
ROOT
ATOM      1  C   UNL     1      23.532   2.294  31.959  1.00  0.00    -0.048 A 
ATOM      2  C   UNL     1      24.196   3.503  31.726  1.00  0.00     0.004 A 
ATOM      3  C   UNL     1      25.153   3.973  32.629  1.00  0.00     0.005 A 
ATOM      4  C   UNL     1      25.467   3.245  33.785  1.00  0.00    -0.034 A 
ATOM      5  C   UNL     1      24.797   2.035  34.018  1.00  0.00     0.005 A 
ATOM      6  C   UNL     1      23.840   1.565  33.114  1.00  0.00     0.004 A 
ENDROOT
BRANCH   1   7
ATOM      7  C   UNL     1      22.500   1.782  30.981  1.00  0.00     0.038 C 
BRANCH   7   8
ATOM      8  C   UNL     1      22.165   2.778  29.855  1.00  0.00    -0.013 C 
ATOM      9  C   UNL     1      22.775   2.295  28.536  1.00  0.00     0.008 C 
ATOM     10  C   UNL     1      20.655   2.965  29.685  1.00  0.00     0.008 C 
ENDBRANCH   7   8
ENDBRANCH   1   7
BRANCH   4  11
ATOM     11  C   UNL     1      26.504   3.739  34.775  1.00  0.00     0.126 C 
ATOM     12  C   UNL     1      27.828   4.088  34.091  1.00  0.00     0.025 C 
BRANCH  11  13
ATOM     13  C   UNL     1      25.998   4.924  35.576  1.00  0.00     0.310 C 
ATOM     14  O   UNL     1      26.516   6.027  35.669  1.00  0.00    -0.252 OA
BRANCH  13  15
ATOM     15  O   UNL     1      24.839   4.665  36.219  1.00  0.00    -0.481 OA
ATOM     16  H   UNL     1      24.949   5.102  37.089  1.00  0.00     0.296 HD
ENDBRANCH  13  15
ENDBRANCH  11  13
ENDBRANCH   4  11
TORSDOF 5
ENDMDL
MODEL 6
REMARK VINA RESULT:      -7.0      3.372      4.712
REMARK SMILES CC(C)Cc1ccc(C(C)C(=O)O)cc1
REMARK SMILES IDX 5 1 6 2 7 3 8 4 14 5 15 6 4 7 2 8 1 9 3 10 9 11 10 12 11 13
REMARK SMILES IDX 12 14 13 15
REMARK H PARENT 13 16
REMARK Flexibility Score: inf
ROOT
ATOM      1  C   UNL     1      24.859   3.267  32.817  1.00  0.00    -0.048 A 
ATOM      2  C   UNL     1      24.955   4.098  31.695  1.00  0.00     0.004 A 
ATOM      3  C   UNL     1      24.088   3.931  30.613  1.00  0.00     0.005 A 
ATOM      4  C   UNL     1      23.108   2.928  30.626  1.00  0.00    -0.034 A 
ATOM      5  C   UNL     1      23.017   2.095  31.750  1.00  0.00     0.005 A 
ATOM      6  C   UNL     1      23.884   2.263  32.834  1.00  0.00     0.004 A 
ENDROOT
BRANCH   1   7
ATOM      7  C   UNL     1      25.792   3.450  33.992  1.00  0.00     0.038 C 
BRANCH   7   8
ATOM      8  C   UNL     1      25.289   4.471  35.031  1.00  0.00    -0.013 C 
ATOM      9  C   UNL     1      24.455   3.756  36.098  1.00  0.00     0.008 C 
ATOM     10  C   UNL     1      26.442   5.225  35.698  1.00  0.00     0.008 C 
ENDBRANCH   7   8
ENDBRANCH   1   7
BRANCH   4  11
ATOM     11  C   UNL     1      22.158   2.733  29.459  1.00  0.00     0.126 C 
ATOM     12  C   UNL     1      22.433   1.427  28.710  1.00  0.00     0.025 C 
BRANCH  11  13
ATOM     13  C   UNL     1      20.707   2.793  29.899  1.00  0.00     0.310 C 
ATOM     14  O   UNL     1      20.194   2.191  30.830  1.00  0.00    -0.252 OA
BRANCH  13  15
ATOM     15  O   UNL     1      19.965   3.631  29.144  1.00  0.00    -0.481 OA
ATOM     16  H   UNL     1      19.091   3.191  29.094  1.00  0.00     0.296 HD
ENDBRANCH  13  15
ENDBRANCH  11  13
ENDBRANCH   4  11
TORSDOF 5
ENDMDL
MODEL 7
REMARK VINA RESULT:      -6.8      2.310      3.317
REMARK SMILES CC(C)Cc1ccc(C(C)C(=O)O)cc1
REMARK SMILES IDX 5 1 6 2 7 3 8 4 14 5 15 6 4 7 2 8 1 9 3 10 9 11 10 12 11 13
REMARK SMILES IDX 12 14 13 15
REMARK H PARENT 13 16
REMARK Flexibility Score: inf
ROOT
ATOM      1  C   UNL     1      23.008   0.564  34.190  1.00  0.00    -0.048 A 
ATOM      2  C   UNL     1      21.749   0.047  33.862  1.00  0.00     0.004 A 
ATOM      3  C   UNL     1      21.118  -0.870  34.706  1.00  0.00     0.005 A 
ATOM      4  C   UNL     1      21.731  -1.291  35.895  1.00  0.00    -0.034 A 
ATOM      5  C   UNL     1      22.993  -0.773  36.218  1.00  0.00     0.005 A 
ATOM      6  C   UNL     1      23.625   0.144  35.374  1.00  0.00     0.004 A 
ENDROOT
BRANCH   1   7
ATOM      7  C   UNL     1      23.690   1.560  33.280  1.00  0.00     0.038 C 
BRANCH   7   8
ATOM      8  C   UNL     1      24.568   2.583  34.027  1.00  0.00    -0.013 C 
ATOM      9  C   UNL     1      25.496   3.289  33.035  1.00  0.00     0.008 C 
ATOM     10  C   UNL     1      23.728   3.622  34.775  1.00  0.00     0.008 C 
ENDBRANCH   7   8
ENDBRANCH   1   7
BRANCH   4  11
ATOM     11  C   UNL     1      21.059  -2.285  36.824  1.00  0.00     0.126 C 
ATOM     12  C   UNL     1      21.365  -3.732  36.431  1.00  0.00     0.025 C 
BRANCH  11  13
ATOM     13  C   UNL     1      21.434  -2.042  38.274  1.00  0.00     0.310 C 
ATOM     14  O   UNL     1      22.478  -2.356  38.828  1.00  0.00    -0.252 OA
BRANCH  13  15
ATOM     15  O   UNL     1      20.472  -1.393  38.963  1.00  0.00    -0.481 OA
ATOM     16  H   UNL     1      20.129  -0.733  38.325  1.00  0.00     0.296 HD
ENDBRANCH  13  15
ENDBRANCH  11  13
ENDBRANCH   4  11
TORSDOF 5
ENDMDL
MODEL 8
REMARK VINA RESULT:      -6.7      1.646      2.122
REMARK SMILES CC(C)Cc1ccc(C(C)C(=O)O)cc1
REMARK SMILES IDX 5 1 6 2 7 3 8 4 14 5 15 6 4 7 2 8 1 9 3 10 9 11 10 12 11 13
REMARK SMILES IDX 12 14 13 15
REMARK H PARENT 13 16
REMARK Flexibility Score: inf
ROOT
ATOM      1  C   UNL     1      24.475   1.577  33.761  1.00  0.00    -0.048 A 
ATOM      2  C   UNL     1      23.327   1.202  33.054  1.00  0.00     0.004 A 
ATOM      3  C   UNL     1      22.333   0.439  33.670  1.00  0.00     0.005 A 
ATOM      4  C   UNL     1      22.464   0.033  35.005  1.00  0.00    -0.034 A 
ATOM      5  C   UNL     1      23.617   0.407  35.709  1.00  0.00     0.005 A 
ATOM      6  C   UNL     1      24.612   1.171  35.093  1.00  0.00     0.004 A 
ENDROOT
BRANCH   1   7
ATOM      7  C   UNL     1      25.550   2.407  33.097  1.00  0.00     0.038 C 
BRANCH   7   8
ATOM      8  C   UNL     1      26.278   3.366  34.060  1.00  0.00    -0.013 C 
ATOM      9  C   UNL     1      27.548   3.902  33.394  1.00  0.00     0.008 C 
ATOM     10  C   UNL     1      25.387   4.535  34.488  1.00  0.00     0.008 C 
ENDBRANCH   7   8
ENDBRANCH   1   7
BRANCH   4  11
ATOM     11  C   UNL     1      21.393  -0.795  35.690  1.00  0.00     0.126 C 
ATOM     12  C   UNL     1      20.457  -1.467  34.682  1.00  0.00     0.025 C 
BRANCH  11  13
ATOM     13  C   UNL     1      21.992  -1.830  36.624  1.00  0.00     0.310 C 
ATOM     14  O   UNL     1      22.455  -1.637  37.738  1.00  0.00    -0.252 OA
BRANCH  13  15
ATOM     15  O   UNL     1      21.966  -3.077  36.108  1.00  0.00    -0.481 OA
ATOM     16  H   UNL     1      21.307  -3.547  36.661  1.00  0.00     0.296 HD
ENDBRANCH  13  15
ENDBRANCH  11  13
ENDBRANCH   4  11
TORSDOF 5
ENDMDL
MODEL 9
REMARK VINA RESULT:      -6.5      3.858      5.527
REMARK SMILES CC(C)Cc1ccc(C(C)C(=O)O)cc1
REMARK SMILES IDX 5 1 6 2 7 3 8 4 14 5 15 6 4 7 2 8 1 9 3 10 9 11 10 12 11 13
REMARK SMILES IDX 12 14 13 15
REMARK H PARENT 13 16
REMARK Flexibility Score: inf
ROOT
ATOM      1  C   UNL     1      23.864   2.205  32.497  1.00  0.00    -0.048 A 
ATOM      2  C   UNL     1      24.129   3.334  31.713  1.00  0.00     0.004 A 
ATOM      3  C   UNL     1      23.447   3.539  30.512  1.00  0.00     0.005 A 
ATOM      4  C   UNL     1      22.485   2.620  30.067  1.00  0.00    -0.034 A 
ATOM      5  C   UNL     1      22.225   1.489  30.853  1.00  0.00     0.005 A 
ATOM      6  C   UNL     1      22.907   1.284  32.055  1.00  0.00     0.004 A 
ENDROOT
BRANCH   1   7
ATOM      7  C   UNL     1      24.598   1.984  33.799  1.00  0.00     0.038 C 
BRANCH   7   8
ATOM      8  C   UNL     1      23.669   1.861  35.023  1.00  0.00    -0.013 C 
ATOM      9  C   UNL     1      23.797   0.462  35.631  1.00  0.00     0.008 C 
ATOM     10  C   UNL     1      23.980   2.916  36.088  1.00  0.00     0.008 C 
ENDBRANCH   7   8
ENDBRANCH   1   7
BRANCH   4  11
ATOM     11  C   UNL     1      21.733   2.828  28.766  1.00  0.00     0.126 C 
ATOM     12  C   UNL     1      22.555   2.383  27.553  1.00  0.00     0.025 C 
BRANCH  11  13
ATOM     13  C   UNL     1      20.387   2.128  28.776  1.00  0.00     0.310 C 
ATOM     14  O   UNL     1      19.461   2.321  29.549  1.00  0.00    -0.252 OA
BRANCH  13  15
ATOM     15  O   UNL     1      20.264   1.216  27.787  1.00  0.00    -0.481 OA
ATOM     16  H   UNL     1      21.159   0.825  27.713  1.00  0.00     0.296 HD
ENDBRANCH  13  15
ENDBRANCH  11  13
ENDBRANCH   4  11
TORSDOF 5
ENDMDL
