MODEL 1
REMARK VINA RESULT:      -8.0      0.000      0.000
REMARK SMILES CN1C(C(=O)Nc2ccccn2)=C(O)c2ccccc2S1(=O)=O
REMARK SMILES IDX 1 1 2 2 3 3 13 4 15 5 16 6 17 7 18 8 19 9 20 10 21 11 22 12
REMARK SMILES IDX 23 13 4 14 5 15 6 16 7 18 8 19 12 20 9 21 11 22 10 23 14 24
REMARK H PARENT 6 17 14 25
REMARK Flexibility Score: inf
ROOT
ATOM      1  C   UNL     1      13.577   3.143  32.128  1.00  0.00     0.164 C 
ATOM      2  N   UNL     1      13.690   4.407  31.367  1.00  0.00    -0.261 N 
ATOM      3  C   UNL     1      14.247   4.411  30.014  1.00  0.00     0.159 C 
ATOM      4  C   UNL     1      14.379   5.626  29.421  1.00  0.00     0.154 C 
ATOM      5  C   UNL     1      13.990   6.905  30.060  1.00  0.00     0.039 A 
ATOM      6  C   UNL     1      14.614   8.121  29.738  1.00  0.00     0.013 A 
ATOM      7  C   UNL     1      14.196   9.320  30.330  1.00  0.00     0.001 A 
ATOM      8  C   UNL     1      13.159   9.321  31.262  1.00  0.00     0.001 A 
ATOM      9  C   UNL     1      12.545   8.124  31.615  1.00  0.00     0.023 A 
ATOM     10  C   UNL     1      12.965   6.939  31.004  1.00  0.00     0.099 A 
ATOM     11  S   UNL     1      12.300   5.393  31.506  1.00  0.00     0.265 S 
ATOM     12  O   UNL     1      11.326   4.989  30.514  1.00  0.00    -0.201 OA
ATOM     13  O   UNL     1      11.955   5.509  32.908  1.00  0.00    -0.201 OA
ENDROOT
BRANCH   3  14
ATOM     14  C   UNL     1      14.687   3.101  29.354  1.00  0.00     0.277 C 
ATOM     15  O   UNL     1      15.537   2.384  29.879  1.00  0.00    -0.267 OA
ATOM     16  N   UNL     1      14.057   2.801  28.174  1.00  0.00    -0.305 N 
ATOM     17  H   UNL     1      13.415   3.484  27.784  1.00  0.00     0.171 HD
BRANCH  16  18
ATOM     18  C   UNL     1      14.201   1.686  27.351  1.00  0.00     0.132 A 
ATOM     19  C   UNL     1      15.416   1.089  27.043  1.00  0.00     0.047 A 
ATOM     20  N   UNL     1      13.025   1.220  26.873  1.00  0.00    -0.239 NA
ATOM     21  C   UNL     1      15.423  -0.030  26.210  1.00  0.00     0.005 A 
ATOM     22  C   UNL     1      13.062   0.134  26.070  1.00  0.00     0.113 A 
ATOM     23  C   UNL     1      14.225  -0.521  25.712  1.00  0.00     0.020 A 
ENDBRANCH  16  18
ENDBRANCH   3  14
BRANCH   4  24
ATOM     24  O   UNL     1      14.856   5.753  28.123  1.00  0.00    -0.505 OA
ATOM     25  H   UNL     1      14.411   6.509  27.694  1.00  0.00     0.293 HD
ENDBRANCH   4  24
TORSDOF 3
ENDMDL
MODEL 2
REMARK VINA RESULT:      -7.4      2.823      7.220
REMARK SMILES CN1C(C(=O)Nc2ccccn2)=C(O)c2ccccc2S1(=O)=O
REMARK SMILES IDX 1 1 2 2 3 3 13 4 15 5 16 6 17 7 18 8 19 9 20 10 21 11 22 12
REMARK SMILES IDX 23 13 4 14 5 15 6 16 7 18 8 19 12 20 9 21 11 22 10 23 14 24
REMARK H PARENT 6 17 14 25
REMARK Flexibility Score: inf
ROOT
ATOM      1  C   UNL     1      14.392   4.909  30.289  1.00  0.00     0.164 C 
ATOM      2  N   UNL     1      13.800   4.040  29.248  1.00  0.00    -0.261 N 
ATOM      3  C   UNL     1      12.518   4.389  28.631  1.00  0.00     0.159 C 
ATOM      4  C   UNL     1      12.017   3.496  27.740  1.00  0.00     0.154 C 
ATOM      5  C   UNL     1      12.690   2.229  27.370  1.00  0.00     0.039 A 
ATOM      6  C   UNL     1      11.975   1.100  26.940  1.00  0.00     0.013 A 
ATOM      7  C   UNL     1      12.643  -0.070  26.558  1.00  0.00     0.001 A 
ATOM      8  C   UNL     1      14.035  -0.136  26.612  1.00  0.00     0.001 A 
ATOM      9  C   UNL     1      14.762   0.962  27.060  1.00  0.00     0.023 A 
ATOM     10  C   UNL     1      14.079   2.127  27.424  1.00  0.00     0.099 A 
ATOM     11  S   UNL     1      14.948   3.492  28.105  1.00  0.00     0.265 S 
ATOM     12  O   UNL     1      15.096   4.486  27.064  1.00  0.00    -0.201 OA
ATOM     13  O   UNL     1      16.090   2.962  28.820  1.00  0.00    -0.201 OA
ENDROOT
BRANCH   3  14
ATOM     14  C   UNL     1      11.793   5.677  29.031  1.00  0.00     0.277 C 
ATOM     15  O   UNL     1      10.925   5.669  29.902  1.00  0.00    -0.267 OA
ATOM     16  N   UNL     1      12.196   6.805  28.365  1.00  0.00    -0.305 N 
ATOM     17  H   UNL     1      12.875   6.705  27.617  1.00  0.00     0.171 HD
BRANCH  16  18
ATOM     18  C   UNL     1      11.768   8.123  28.512  1.00  0.00     0.132 A 
ATOM     19  C   UNL     1      12.008   8.905  29.634  1.00  0.00     0.047 A 
ATOM     20  N   UNL     1      11.088   8.586  27.439  1.00  0.00    -0.239 NA
ATOM     21  C   UNL     1      11.529  10.215  29.654  1.00  0.00     0.005 A 
ATOM     22  C   UNL     1      10.638   9.859  27.486  1.00  0.00     0.113 A 
ATOM     23  C   UNL     1      10.831  10.706  28.561  1.00  0.00     0.020 A 
ENDBRANCH  16  18
ENDBRANCH   3  14
BRANCH   4  24
ATOM     24  O   UNL     1      10.830   3.737  27.060  1.00  0.00    -0.505 OA
ATOM     25  H   UNL     1      11.015   3.767  26.101  1.00  0.00     0.293 HD
ENDBRANCH   4  24
TORSDOF 3
ENDMDL
MODEL 3
REMARK VINA RESULT:      -7.4      1.925      7.149
REMARK SMILES CN1C(C(=O)Nc2ccccn2)=C(O)c2ccccc2S1(=O)=O
REMARK SMILES IDX 1 1 2 2 3 3 13 4 15 5 16 6 17 7 18 8 19 9 20 10 21 11 22 12
REMARK SMILES IDX 23 13 4 14 5 15 6 16 7 18 8 19 12 20 9 21 11 22 10 23 14 24
REMARK H PARENT 6 17 14 25
REMARK Flexibility Score: inf
ROOT
ATOM      1  C   UNL     1      14.396   3.182  31.528  1.00  0.00     0.164 C 
ATOM      2  N   UNL     1      13.887   3.003  30.150  1.00  0.00    -0.261 N 
ATOM      3  C   UNL     1      12.808   3.852  29.642  1.00  0.00     0.159 C 
ATOM      4  C   UNL     1      12.357   3.569  28.394  1.00  0.00     0.154 C 
ATOM      5  C   UNL     1      12.894   2.478  27.546  1.00  0.00     0.039 A 
ATOM      6  C   UNL     1      12.115   1.833  26.574  1.00  0.00     0.013 A 
ATOM      7  C   UNL     1      12.664   0.834  25.761  1.00  0.00     0.001 A 
ATOM      8  C   UNL     1      13.997   0.454  25.916  1.00  0.00     0.001 A 
ATOM      9  C   UNL     1      14.780   1.061  26.892  1.00  0.00     0.023 A 
ATOM     10  C   UNL     1      14.219   2.067  27.684  1.00  0.00     0.099 A 
ATOM     11  S   UNL     1      15.135   2.777  29.004  1.00  0.00     0.265 S 
ATOM     12  O   UNL     1      15.618   4.067  28.562  1.00  0.00    -0.201 OA
ATOM     13  O   UNL     1      16.035   1.756  29.499  1.00  0.00    -0.201 OA
ENDROOT
BRANCH   3  14
ATOM     14  C   UNL     1      12.216   4.960  30.519  1.00  0.00     0.277 C 
ATOM     15  O   UNL     1      11.023   4.962  30.815  1.00  0.00    -0.267 OA
ATOM     16  N   UNL     1      13.111   5.907  30.946  1.00  0.00    -0.305 N 
ATOM     17  H   UNL     1      14.064   5.859  30.600  1.00  0.00     0.171 HD
BRANCH  16  18
ATOM     18  C   UNL     1      12.907   7.011  31.771  1.00  0.00     0.132 A 
ATOM     19  C   UNL     1      13.013   8.331  31.356  1.00  0.00     0.047 A 
ATOM     20  N   UNL     1      12.582   6.675  33.040  1.00  0.00    -0.239 NA
ATOM     21  C   UNL     1      12.776   9.348  32.281  1.00  0.00     0.005 A 
ATOM     22  C   UNL     1      12.357   7.681  33.915  1.00  0.00     0.113 A 
ATOM     23  C   UNL     1      12.441   9.021  33.587  1.00  0.00     0.020 A 
ENDBRANCH  16  18
ENDBRANCH   3  14
BRANCH   4  24
ATOM     24  O   UNL     1      11.365   4.331  27.789  1.00  0.00    -0.505 OA
ATOM     25  H   UNL     1      11.707   5.233  27.637  1.00  0.00     0.293 HD
ENDBRANCH   4  24
TORSDOF 3
ENDMDL
MODEL 4
REMARK VINA RESULT:      -7.3     17.718     20.093
REMARK SMILES CN1C(C(=O)Nc2ccccn2)=C(O)c2ccccc2S1(=O)=O
REMARK SMILES IDX 1 1 2 2 3 3 13 4 15 5 16 6 17 7 18 8 19 9 20 10 21 11 22 12
REMARK SMILES IDX 23 13 4 14 5 15 6 16 7 18 8 19 12 20 9 21 11 22 10 23 14 24
REMARK H PARENT 6 17 14 25
REMARK Flexibility Score: inf
ROOT
ATOM      1  C   UNL     1      25.237  -8.052  30.313  1.00  0.00     0.164 C 
ATOM      2  N   UNL     1      26.668  -8.398  30.461  1.00  0.00    -0.261 N 
ATOM      3  C   UNL     1      27.100  -9.347  31.489  1.00  0.00     0.159 C 
ATOM      4  C   UNL     1      28.438  -9.547  31.599  1.00  0.00     0.154 C 
ATOM      5  C   UNL     1      29.448  -8.876  30.748  1.00  0.00     0.039 A 
ATOM      6  C   UNL     1      30.756  -8.628  31.194  1.00  0.00     0.013 A 
ATOM      7  C   UNL     1      31.700  -8.028  30.351  1.00  0.00     0.001 A 
ATOM      8  C   UNL     1      31.349  -7.654  29.054  1.00  0.00     0.001 A 
ATOM      9  C   UNL     1      30.051  -7.866  28.601  1.00  0.00     0.023 A 
ATOM     10  C   UNL     1      29.126  -8.479  29.451  1.00  0.00     0.099 A 
ATOM     11  S   UNL     1      27.449  -8.658  28.962  1.00  0.00     0.265 S 
ATOM     12  O   UNL     1      27.252 -10.032  28.553  1.00  0.00    -0.201 OA
ATOM     13  O   UNL     1      27.137  -7.550  28.083  1.00  0.00    -0.201 OA
ENDROOT
BRANCH   3  14
ATOM     14  C   UNL     1      26.070 -10.020  32.401  1.00  0.00     0.277 C 
ATOM     15  O   UNL     1      25.423 -10.991  32.015  1.00  0.00    -0.267 OA
ATOM     16  N   UNL     1      25.952  -9.472  33.652  1.00  0.00    -0.305 N 
ATOM     17  H   UNL     1      26.481  -8.632  33.862  1.00  0.00     0.171 HD
BRANCH  16  18
ATOM     18  C   UNL     1      25.143  -9.862  34.718  1.00  0.00     0.132 A 
ATOM     19  C   UNL     1      25.366 -10.986  35.502  1.00  0.00     0.047 A 
ATOM     20  N   UNL     1      24.102  -9.026  34.931  1.00  0.00    -0.239 NA
ATOM     21  C   UNL     1      24.483 -11.262  36.546  1.00  0.00     0.005 A 
ATOM     22  C   UNL     1      23.264  -9.318  35.951  1.00  0.00     0.113 A 
ATOM     23  C   UNL     1      23.410 -10.415  36.779  1.00  0.00     0.020 A 
ENDBRANCH  16  18
ENDBRANCH   3  14
BRANCH   4  24
ATOM     24  O   UNL     1      28.964 -10.454  32.510  1.00  0.00    -0.505 OA
ATOM     25  H   UNL     1      29.892 -10.214  32.696  1.00  0.00     0.293 HD
ENDBRANCH   4  24
TORSDOF 3
ENDMDL
MODEL 5
REMARK VINA RESULT:      -7.3     18.203     19.986
REMARK SMILES CN1C(C(=O)Nc2ccccn2)=C(O)c2ccccc2S1(=O)=O
REMARK SMILES IDX 1 1 2 2 3 3 13 4 15 5 16 6 17 7 18 8 19 9 20 10 21 11 22 12
REMARK SMILES IDX 23 13 4 14 5 15 6 16 7 18 8 19 12 20 9 21 11 22 10 23 14 24
REMARK H PARENT 6 17 14 25
REMARK Flexibility Score: inf
ROOT
ATOM      1  C   UNL     1      26.238 -11.100  29.730  1.00  0.00     0.164 C 
ATOM      2  N   UNL     1      25.993 -10.703  31.135  1.00  0.00    -0.261 N 
ATOM      3  C   UNL     1      27.086 -10.188  31.962  1.00  0.00     0.159 C 
ATOM      4  C   UNL     1      26.785  -9.918  33.257  1.00  0.00     0.154 C 
ATOM      5  C   UNL     1      25.440 -10.109  33.852  1.00  0.00     0.039 A 
ATOM      6  C   UNL     1      25.258 -10.383  35.216  1.00  0.00     0.013 A 
ATOM      7  C   UNL     1      23.973 -10.518  35.755  1.00  0.00     0.001 A 
ATOM      8  C   UNL     1      22.850 -10.394  34.938  1.00  0.00     0.001 A 
ATOM      9  C   UNL     1      23.008 -10.149  33.578  1.00  0.00     0.023 A 
ATOM     10  C   UNL     1      24.299 -10.003  33.060  1.00  0.00     0.099 A 
ATOM     11  S   UNL     1      24.548  -9.811  31.332  1.00  0.00     0.265 S 
ATOM     12  O   UNL     1      24.812  -8.411  31.077  1.00  0.00    -0.201 OA
ATOM     13  O   UNL     1      23.476 -10.517  30.662  1.00  0.00    -0.201 OA
ENDROOT
BRANCH   3  14
ATOM     14  C   UNL     1      28.490 -10.021  31.372  1.00  0.00     0.277 C 
ATOM     15  O   UNL     1      29.273 -10.967  31.326  1.00  0.00    -0.267 OA
ATOM     16  N   UNL     1      28.778  -8.766  30.899  1.00  0.00    -0.305 N 
ATOM     17  H   UNL     1      28.093  -8.031  31.037  1.00  0.00     0.171 HD
BRANCH  16  18
ATOM     18  C   UNL     1      29.936  -8.296  30.281  1.00  0.00     0.132 A 
ATOM     19  C   UNL     1      31.204  -8.356  30.843  1.00  0.00     0.047 A 
ATOM     20  N   UNL     1      29.711  -7.771  29.056  1.00  0.00    -0.239 NA
ATOM     21  C   UNL     1      32.284  -7.856  30.116  1.00  0.00     0.005 A 
ATOM     22  C   UNL     1      30.776  -7.296  28.374  1.00  0.00     0.113 A 
ATOM     23  C   UNL     1      32.071  -7.315  28.856  1.00  0.00     0.020 A 
ENDBRANCH  16  18
ENDBRANCH   3  14
BRANCH   4  24
ATOM     24  O   UNL     1      27.728  -9.387  34.128  1.00  0.00    -0.505 OA
ATOM     25  H   UNL     1      28.261 -10.116  34.501  1.00  0.00     0.293 HD
ENDBRANCH   4  24
TORSDOF 3
ENDMDL
MODEL 6
REMARK VINA RESULT:      -7.0      2.058      2.792
REMARK SMILES CN1C(C(=O)Nc2ccccn2)=C(O)c2ccccc2S1(=O)=O
REMARK SMILES IDX 1 1 2 2 3 3 13 4 15 5 16 6 17 7 18 8 19 9 20 10 21 11 22 12
REMARK SMILES IDX 23 13 4 14 5 15 6 16 7 18 8 19 12 20 9 21 11 22 10 23 14 24
REMARK H PARENT 6 17 14 25
REMARK Flexibility Score: inf
ROOT
ATOM      1  C   UNL     1      11.695   3.903  28.887  1.00  0.00     0.164 C 
ATOM      2  N   UNL     1      12.286   5.049  29.615  1.00  0.00    -0.261 N 
ATOM      3  C   UNL     1      13.621   4.943  30.206  1.00  0.00     0.159 C 
ATOM      4  C   UNL     1      14.050   6.016  30.917  1.00  0.00     0.154 C 
ATOM      5  C   UNL     1      13.257   7.253  31.110  1.00  0.00     0.039 A 
ATOM      6  C   UNL     1      13.412   8.072  32.240  1.00  0.00     0.013 A 
ATOM      7  C   UNL     1      12.676   9.256  32.373  1.00  0.00     0.001 A 
ATOM      8  C   UNL     1      11.764   9.634  31.388  1.00  0.00     0.001 A 
ATOM      9  C   UNL     1      11.576   8.823  30.274  1.00  0.00     0.023 A 
ATOM     10  C   UNL     1      12.329   7.652  30.150  1.00  0.00     0.099 A 
ATOM     11  S   UNL     1      12.038   6.542  28.821  1.00  0.00     0.265 S 
ATOM     12  O   UNL     1      13.085   6.741  27.842  1.00  0.00    -0.201 OA
ATOM     13  O   UNL     1      10.638   6.650  28.469  1.00  0.00    -0.201 OA
ENDROOT
BRANCH   3  14
ATOM     14  C   UNL     1      14.438   3.657  30.047  1.00  0.00     0.277 C 
ATOM     15  O   UNL     1      14.547   2.859  30.975  1.00  0.00    -0.267 OA
ATOM     16  N   UNL     1      15.003   3.475  28.811  1.00  0.00    -0.305 N 
ATOM     17  H   UNL     1      14.913   4.217  28.126  1.00  0.00     0.171 HD
BRANCH  16  18
ATOM     18  C   UNL     1      15.768   2.411  28.334  1.00  0.00     0.132 A 
ATOM     19  C   UNL     1      15.285   1.409  27.504  1.00  0.00     0.047 A 
ATOM     20  N   UNL     1      17.052   2.446  28.756  1.00  0.00    -0.239 NA
ATOM     21  C   UNL     1      16.157   0.401  27.091  1.00  0.00     0.005 A 
ATOM     22  C   UNL     1      17.875   1.459  28.339  1.00  0.00     0.113 A 
ATOM     23  C   UNL     1      17.479   0.423  27.513  1.00  0.00     0.020 A 
ENDBRANCH  16  18
ENDBRANCH   3  14
BRANCH   4  24
ATOM     24  O   UNL     1      15.315   6.049  31.490  1.00  0.00    -0.505 OA
ATOM     25  H   UNL     1      15.801   6.822  31.142  1.00  0.00     0.293 HD
ENDBRANCH   4  24
TORSDOF 3
ENDMDL
MODEL 7
REMARK VINA RESULT:      -6.9      9.764     10.983
REMARK SMILES CN1C(C(=O)Nc2ccccn2)=C(O)c2ccccc2S1(=O)=O
REMARK SMILES IDX 1 1 2 2 3 3 13 4 15 5 16 6 17 7 18 8 19 9 20 10 21 11 22 12
REMARK SMILES IDX 23 13 4 14 5 15 6 16 7 18 8 19 12 20 9 21 11 22 10 23 14 24
REMARK H PARENT 6 17 14 25
REMARK Flexibility Score: inf
ROOT
ATOM      1  C   UNL     1      24.506   3.790  30.700  1.00  0.00     0.164 C 
ATOM      2  N   UNL     1      24.423   3.508  32.151  1.00  0.00    -0.261 N 
ATOM      3  C   UNL     1      23.438   2.556  32.667  1.00  0.00     0.159 C 
ATOM      4  C   UNL     1      23.386   2.416  34.016  1.00  0.00     0.154 C 
ATOM      5  C   UNL     1      24.257   3.155  34.959  1.00  0.00     0.039 A 
ATOM      6  C   UNL     1      23.856   3.452  36.271  1.00  0.00     0.013 A 
ATOM      7  C   UNL     1      24.719   4.117  37.152  1.00  0.00     0.001 A 
ATOM      8  C   UNL     1      25.990   4.506  36.732  1.00  0.00     0.001 A 
ATOM      9  C   UNL     1      26.398   4.244  35.429  1.00  0.00     0.023 A 
ATOM     10  C   UNL     1      25.529   3.567  34.567  1.00  0.00     0.099 A 
ATOM     11  S   UNL     1      25.957   3.322  32.882  1.00  0.00     0.265 S 
ATOM     12  O   UNL     1      26.395   1.951  32.733  1.00  0.00    -0.201 OA
ATOM     13  O   UNL     1      26.794   4.435  32.485  1.00  0.00    -0.201 OA
ENDROOT
BRANCH   3  14
ATOM     14  C   UNL     1      22.505   1.812  31.706  1.00  0.00     0.277 C 
ATOM     15  O   UNL     1      22.162   0.652  31.929  1.00  0.00    -0.267 OA
ATOM     16  N   UNL     1      22.085   2.538  30.621  1.00  0.00    -0.305 N 
ATOM     17  H   UNL     1      22.470   3.467  30.486  1.00  0.00     0.171 HD
BRANCH  16  18
ATOM     18  C   UNL     1      21.219   2.173  29.592  1.00  0.00     0.132 A 
ATOM     19  C   UNL     1      21.627   1.647  28.373  1.00  0.00     0.047 A 
ATOM     20  N   UNL     1      19.917   2.374  29.894  1.00  0.00    -0.239 NA
ATOM     21  C   UNL     1      20.657   1.315  27.427  1.00  0.00     0.005 A 
ATOM     22  C   UNL     1      18.999   2.042  28.959  1.00  0.00     0.113 A 
ATOM     23  C   UNL     1      19.316   1.515  27.722  1.00  0.00     0.020 A 
ENDBRANCH  16  18
ENDBRANCH   3  14
BRANCH   4  24
ATOM     24  O   UNL     1      22.520   1.512  34.619  1.00  0.00    -0.505 OA
ATOM     25  H   UNL     1      21.709   1.441  34.079  1.00  0.00     0.293 HD
ENDBRANCH   4  24
TORSDOF 3
ENDMDL
MODEL 8
REMARK VINA RESULT:      -6.9     18.215     20.574
REMARK SMILES CN1C(C(=O)Nc2ccccn2)=C(O)c2ccccc2S1(=O)=O
REMARK SMILES IDX 1 1 2 2 3 3 13 4 15 5 16 6 17 7 18 8 19 9 20 10 21 11 22 12
REMARK SMILES IDX 23 13 4 14 5 15 6 16 7 18 8 19 12 20 9 21 11 22 10 23 14 24
REMARK H PARENT 6 17 14 25
REMARK Flexibility Score: inf
ROOT
ATOM      1  C   UNL     1      27.794 -10.584  27.952  1.00  0.00     0.164 C 
ATOM      2  N   UNL     1      27.209 -10.343  29.290  1.00  0.00    -0.261 N 
ATOM      3  C   UNL     1      28.069  -9.997  30.424  1.00  0.00     0.159 C 
ATOM      4  C   UNL     1      27.454  -9.866  31.627  1.00  0.00     0.154 C 
ATOM      5  C   UNL     1      25.998 -10.045  31.837  1.00  0.00     0.039 A 
ATOM      6  C   UNL     1      25.465 -10.468  33.064  1.00  0.00     0.013 A 
ATOM      7  C   UNL     1      24.082 -10.588  33.243  1.00  0.00     0.001 A 
ATOM      8  C   UNL     1      23.209 -10.300  32.194  1.00  0.00     0.001 A 
ATOM      9  C   UNL     1      23.716  -9.905  30.961  1.00  0.00     0.023 A 
ATOM     10  C   UNL     1      25.100  -9.776  30.805  1.00  0.00     0.099 A 
ATOM     11  S   UNL     1      25.787  -9.395  29.235  1.00  0.00     0.265 S 
ATOM     12  O   UNL     1      26.147  -7.993  29.239  1.00  0.00    -0.201 OA
ATOM     13  O   UNL     1      24.903  -9.951  28.232  1.00  0.00    -0.201 OA
ENDROOT
BRANCH   3  14
ATOM     14  C   UNL     1      29.581  -9.846  30.231  1.00  0.00     0.277 C 
ATOM     15  O   UNL     1      30.369 -10.595  30.803  1.00  0.00    -0.267 OA
ATOM     16  N   UNL     1      29.962  -8.843  29.376  1.00  0.00    -0.305 N 
ATOM     17  H   UNL     1      29.244  -8.234  28.998  1.00  0.00     0.171 HD
BRANCH  16  18
ATOM     18  C   UNL     1      31.240  -8.468  28.964  1.00  0.00     0.132 A 
ATOM     19  C   UNL     1      31.928  -7.364  29.449  1.00  0.00     0.047 A 
ATOM     20  N   UNL     1      31.765  -9.298  28.034  1.00  0.00    -0.239 NA
ATOM     21  C   UNL     1      33.207  -7.102  28.958  1.00  0.00     0.005 A 
ATOM     22  C   UNL     1      33.006  -9.019  27.577  1.00  0.00     0.113 A 
ATOM     23  C   UNL     1      33.761  -7.943  28.004  1.00  0.00     0.020 A 
ENDBRANCH  16  18
ENDBRANCH   3  14
BRANCH   4  24
ATOM     24  O   UNL     1      28.159  -9.500  32.767  1.00  0.00    -0.505 OA
ATOM     25  H   UNL     1      28.140 -10.242  33.402  1.00  0.00     0.293 HD
ENDBRANCH   4  24
TORSDOF 3
ENDMDL
MODEL 9
REMARK VINA RESULT:      -6.9      2.062      2.660
REMARK SMILES CN1C(C(=O)Nc2ccccn2)=C(O)c2ccccc2S1(=O)=O
REMARK SMILES IDX 1 1 2 2 3 3 13 4 15 5 16 6 17 7 18 8 19 9 20 10 21 11 22 12
REMARK SMILES IDX 23 13 4 14 5 15 6 16 7 18 8 19 12 20 9 21 11 22 10 23 14 24
REMARK H PARENT 6 17 14 25
REMARK Flexibility Score: inf
ROOT
ATOM      1  C   UNL     1      14.962   2.632  29.070  1.00  0.00     0.164 C 
ATOM      2  N   UNL     1      13.961   3.721  29.120  1.00  0.00    -0.261 N 
ATOM      3  C   UNL     1      12.702   3.605  28.382  1.00  0.00     0.159 C 
ATOM      4  C   UNL     1      11.878   4.683  28.427  1.00  0.00     0.154 C 
ATOM      5  C   UNL     1      12.182   5.928  29.171  1.00  0.00     0.039 A 
ATOM      6  C   UNL     1      11.670   7.176  28.782  1.00  0.00     0.013 A 
ATOM      7  C   UNL     1      11.943   8.328  29.529  1.00  0.00     0.001 A 
ATOM      8  C   UNL     1      12.743   8.255  30.669  1.00  0.00     0.001 A 
ATOM      9  C   UNL     1      13.282   7.033  31.057  1.00  0.00     0.023 A 
ATOM     10  C   UNL     1      12.987   5.890  30.308  1.00  0.00     0.099 A 
ATOM     11  S   UNL     1      13.742   4.352  30.694  1.00  0.00     0.265 S 
ATOM     12  O   UNL     1      12.768   3.548  31.400  1.00  0.00    -0.201 OA
ATOM     13  O   UNL     1      15.043   4.642  31.259  1.00  0.00    -0.201 OA
ENDROOT
BRANCH   3  14
ATOM     14  C   UNL     1      12.390   2.339  27.579  1.00  0.00     0.277 C 
ATOM     15  O   UNL     1      11.311   1.763  27.702  1.00  0.00    -0.267 OA
ATOM     16  N   UNL     1      13.382   1.931  26.724  1.00  0.00    -0.305 N 
ATOM     17  H   UNL     1      14.263   2.433  26.736  1.00  0.00     0.171 HD
BRANCH  16  18
ATOM     18  C   UNL     1      13.402   0.854  25.840  1.00  0.00     0.132 A 
ATOM     19  C   UNL     1      14.033  -0.356  26.093  1.00  0.00     0.047 A 
ATOM     20  N   UNL     1      12.731   1.095  24.691  1.00  0.00    -0.239 NA
ATOM     21  C   UNL     1      13.974  -1.360  25.126  1.00  0.00     0.005 A 
ATOM     22  C   UNL     1      12.689   0.104  23.773  1.00  0.00     0.113 A 
ATOM     23  C   UNL     1      13.289  -1.130  23.941  1.00  0.00     0.020 A 
ENDBRANCH  16  18
ENDBRANCH   3  14
BRANCH   4  24
ATOM     24  O   UNL     1      10.638   4.675  27.801  1.00  0.00    -0.505 OA
ATOM     25  H   UNL     1      10.182   5.518  27.991  1.00  0.00     0.293 HD
ENDBRANCH   4  24
TORSDOF 3
ENDMDL
