MODEL 1
REMARK VINA RESULT:      -8.3      0.000      0.000
REMARK SMILES COc1ccc2ccc(C(C)C(=O)O)cc2c1
REMARK SMILES IDX 10 1 11 2 9 3 3 4 17 5 4 6 16 7 5 8 15 9 6 10 7 11 8 12 2 13
REMARK SMILES IDX 1 14 12 15 13 16 14 17
REMARK H PARENT 14 18
REMARK Flexibility Score: inf
ROOT
ATOM      1  C   UNL     1      21.797   1.863  29.623  1.00  0.00     0.126 C 
ATOM      2  C   UNL     1      22.753   2.510  28.618  1.00  0.00     0.025 C 
ENDROOT
BRANCH   1   3
ATOM      3  C   UNL     1      22.375   1.862  31.030  1.00  0.00    -0.033 A 
ATOM      4  C   UNL     1      25.457   3.799  34.307  1.00  0.00     0.119 A 
ATOM      5  C   UNL     1      24.911   3.764  33.021  1.00  0.00     0.055 A 
ATOM      6  C   UNL     1      25.008   2.889  35.262  1.00  0.00     0.047 A 
ATOM      7  C   UNL     1      23.920   2.832  32.671  1.00  0.00    -0.014 A 
ATOM      8  C   UNL     1      24.021   1.955  34.931  1.00  0.00     0.012 A 
ATOM      9  C   UNL     1      23.368   2.794  31.378  1.00  0.00     0.013 A 
ATOM     10  C   UNL     1      23.469   1.915  33.641  1.00  0.00    -0.018 A 
ATOM     11  C   UNL     1      22.479   0.983  33.295  1.00  0.00     0.009 A 
ATOM     12  C   UNL     1      21.939   0.959  32.007  1.00  0.00     0.005 A 
BRANCH   4  13
ATOM     13  O   UNL     1      26.412   4.760  34.498  1.00  0.00    -0.497 OA
ATOM     14  C   UNL     1      26.448   5.386  35.774  1.00  0.00     0.278 C 
ENDBRANCH   4  13
ENDBRANCH   1   3
BRANCH   1  15
ATOM     15  C   UNL     1      20.438   2.536  29.527  1.00  0.00     0.310 C 
ATOM     16  O   UNL     1      19.335   2.014  29.510  1.00  0.00    -0.252 OA
BRANCH  15  17
ATOM     17  O   UNL     1      20.537   3.884  29.505  1.00  0.00    -0.481 OA
ATOM     18  H   UNL     1      20.204   4.155  30.387  1.00  0.00     0.296 HD
ENDBRANCH  15  17
ENDBRANCH   1  15
TORSDOF 4
ENDMDL
MODEL 2
REMARK VINA RESULT:      -8.2      2.390      6.437
REMARK SMILES COc1ccc2ccc(C(C)C(=O)O)cc2c1
REMARK SMILES IDX 10 1 11 2 9 3 3 4 17 5 4 6 16 7 5 8 15 9 6 10 7 11 8 12 2 13
REMARK SMILES IDX 1 14 12 15 13 16 14 17
REMARK H PARENT 14 18
REMARK Flexibility Score: inf
ROOT
ATOM      1  C   UNL     1      26.226   4.014  35.708  1.00  0.00     0.126 C 
ATOM      2  C   UNL     1      25.419   4.562  36.886  1.00  0.00     0.025 C 
ENDROOT
BRANCH   1   3
ATOM      3  C   UNL     1      25.324   3.467  34.613  1.00  0.00    -0.033 A 
ATOM      4  C   UNL     1      21.738   0.419  33.256  1.00  0.00     0.119 A 
ATOM      5  C   UNL     1      22.590   0.937  34.235  1.00  0.00     0.055 A 
ATOM      6  C   UNL     1      21.820   0.907  31.954  1.00  0.00     0.047 A 
ATOM      7  C   UNL     1      23.528   1.939  33.933  1.00  0.00    -0.014 A 
ATOM      8  C   UNL     1      22.748   1.904  31.636  1.00  0.00     0.012 A 
ATOM      9  C   UNL     1      24.387   2.464  34.916  1.00  0.00     0.013 A 
ATOM     10  C   UNL     1      23.607   2.430  32.614  1.00  0.00    -0.018 A 
ATOM     11  C   UNL     1      24.541   3.429  32.310  1.00  0.00     0.009 A 
ATOM     12  C   UNL     1      25.388   3.942  33.297  1.00  0.00     0.005 A 
BRANCH   4  13
ATOM     13  O   UNL     1      20.880  -0.550  33.699  1.00  0.00    -0.497 OA
ATOM     14  C   UNL     1      21.076  -1.026  35.025  1.00  0.00     0.278 C 
ENDBRANCH   4  13
ENDBRANCH   1   3
BRANCH   1  15
ATOM     15  C   UNL     1      27.191   5.082  35.220  1.00  0.00     0.310 C 
ATOM     16  O   UNL     1      28.143   4.955  34.468  1.00  0.00    -0.252 OA
BRANCH  15  17
ATOM     17  O   UNL     1      26.869   6.310  35.684  1.00  0.00    -0.481 OA
ATOM     18  H   UNL     1      27.538   6.476  36.382  1.00  0.00     0.296 HD
ENDBRANCH  15  17
ENDBRANCH   1  15
TORSDOF 4
ENDMDL
MODEL 3
REMARK VINA RESULT:      -8.2      2.066      3.370
REMARK SMILES COc1ccc2ccc(C(C)C(=O)O)cc2c1
REMARK SMILES IDX 10 1 11 2 9 3 3 4 17 5 4 6 16 7 5 8 15 9 6 10 7 11 8 12 2 13
REMARK SMILES IDX 1 14 12 15 13 16 14 17
REMARK H PARENT 14 18
REMARK Flexibility Score: inf
ROOT
ATOM      1  C   UNL     1      21.583   1.939  29.357  1.00  0.00     0.126 C 
ATOM      2  C   UNL     1      22.479   2.285  28.166  1.00  0.00     0.025 C 
ENDROOT
BRANCH   1   3
ATOM      3  C   UNL     1      22.340   2.022  30.674  1.00  0.00    -0.033 A 
ATOM      4  C   UNL     1      23.138   0.271  35.178  1.00  0.00     0.119 A 
ATOM      5  C   UNL     1      22.455   0.231  33.959  1.00  0.00     0.055 A 
ATOM      6  C   UNL     1      24.121   1.238  35.376  1.00  0.00     0.047 A 
ATOM      7  C   UNL     1      22.739   1.145  32.931  1.00  0.00    -0.014 A 
ATOM      8  C   UNL     1      24.417   2.155  34.363  1.00  0.00     0.012 A 
ATOM      9  C   UNL     1      22.054   1.108  31.702  1.00  0.00     0.013 A 
ATOM     10  C   UNL     1      23.735   2.121  33.136  1.00  0.00    -0.018 A 
ATOM     11  C   UNL     1      24.021   3.034  32.112  1.00  0.00     0.009 A 
ATOM     12  C   UNL     1      23.333   2.984  30.896  1.00  0.00     0.005 A 
BRANCH   4  13
ATOM     13  O   UNL     1      22.753  -0.681  36.081  1.00  0.00    -0.497 OA
ATOM     14  C   UNL     1      21.592  -1.439  35.762  1.00  0.00     0.278 C 
ENDBRANCH   4  13
ENDBRANCH   1   3
BRANCH   1  15
ATOM     15  C   UNL     1      20.339   2.810  29.318  1.00  0.00     0.310 C 
ATOM     16  O   UNL     1      20.265   4.017  29.160  1.00  0.00    -0.252 OA
BRANCH  15  17
ATOM     17  O   UNL     1      19.205   2.084  29.438  1.00  0.00    -0.481 OA
ATOM     18  H   UNL     1      18.564   2.560  28.869  1.00  0.00     0.296 HD
ENDBRANCH  15  17
ENDBRANCH   1  15
TORSDOF 4
ENDMDL
MODEL 4
REMARK VINA RESULT:      -8.1      3.238      6.045
REMARK SMILES COc1ccc2ccc(C(C)C(=O)O)cc2c1
REMARK SMILES IDX 10 1 11 2 9 3 3 4 17 5 4 6 16 7 5 8 15 9 6 10 7 11 8 12 2 13
REMARK SMILES IDX 1 14 12 15 13 16 14 17
REMARK H PARENT 14 18
REMARK Flexibility Score: inf
ROOT
ATOM      1  C   UNL     1      25.745   2.897  34.589  1.00  0.00     0.126 C 
ATOM      2  C   UNL     1      25.803   3.465  36.008  1.00  0.00     0.025 C 
ENDROOT
BRANCH   1   3
ATOM      3  C   UNL     1      24.508   2.037  34.377  1.00  0.00    -0.033 A 
ATOM      4  C   UNL     1      21.566  -1.549  35.949  1.00  0.00     0.119 A 
ATOM      5  C   UNL     1      22.700  -0.748  36.106  1.00  0.00     0.055 A 
ATOM      6  C   UNL     1      20.749  -1.363  34.836  1.00  0.00     0.047 A 
ATOM      7  C   UNL     1      23.035   0.240  35.165  1.00  0.00    -0.014 A 
ATOM      8  C   UNL     1      21.068  -0.384  33.889  1.00  0.00     0.012 A 
ATOM      9  C   UNL     1      24.176   1.048  35.319  1.00  0.00     0.013 A 
ATOM     10  C   UNL     1      22.205   0.424  34.040  1.00  0.00    -0.018 A 
ATOM     11  C   UNL     1      22.536   1.409  33.099  1.00  0.00     0.009 A 
ATOM     12  C   UNL     1      23.672   2.206  33.266  1.00  0.00     0.005 A 
BRANCH   4  13
ATOM     13  O   UNL     1      21.370  -2.466  36.946  1.00  0.00    -0.497 OA
ATOM     14  C   UNL     1      21.726  -2.069  38.264  1.00  0.00     0.278 C 
ENDBRANCH   4  13
ENDBRANCH   1   3
BRANCH   1  15
ATOM     15  C   UNL     1      25.872   4.032  33.587  1.00  0.00     0.310 C 
ATOM     16  O   UNL     1      26.359   4.003  32.468  1.00  0.00    -0.252 OA
BRANCH  15  17
ATOM     17  O   UNL     1      25.316   5.177  34.041  1.00  0.00    -0.481 OA
ATOM     18  H   UNL     1      24.355   5.036  33.908  1.00  0.00     0.296 HD
ENDBRANCH  15  17
ENDBRANCH   1  15
TORSDOF 4
ENDMDL
MODEL 5
REMARK VINA RESULT:      -8.0      1.362      6.109
REMARK SMILES COc1ccc2ccc(C(C)C(=O)O)cc2c1
REMARK SMILES IDX 10 1 11 2 9 3 3 4 17 5 4 6 16 7 5 8 15 9 6 10 7 11 8 12 2 13
REMARK SMILES IDX 1 14 12 15 13 16 14 17
REMARK H PARENT 14 18
REMARK Flexibility Score: inf
ROOT
ATOM      1  C   UNL     1      26.000   3.665  35.818  1.00  0.00     0.126 C 
ATOM      2  C   UNL     1      25.315   4.407  36.968  1.00  0.00     0.025 C 
ENDROOT
BRANCH   1   3
ATOM      3  C   UNL     1      24.994   2.941  34.936  1.00  0.00    -0.033 A 
ATOM      4  C   UNL     1      22.761   2.502  30.599  1.00  0.00     0.119 A 
ATOM      5  C   UNL     1      23.670   3.150  31.441  1.00  0.00     0.055 A 
ATOM      6  C   UNL     1      22.045   1.410  31.082  1.00  0.00     0.047 A 
ATOM      7  C   UNL     1      23.875   2.722  32.763  1.00  0.00    -0.014 A 
ATOM      8  C   UNL     1      22.237   0.971  32.396  1.00  0.00     0.012 A 
ATOM      9  C   UNL     1      24.789   3.371  33.614  1.00  0.00     0.013 A 
ATOM     10  C   UNL     1      23.148   1.616  33.247  1.00  0.00    -0.018 A 
ATOM     11  C   UNL     1      23.350   1.187  34.566  1.00  0.00     0.009 A 
ATOM     12  C   UNL     1      24.263   1.841  35.399  1.00  0.00     0.005 A 
BRANCH   4  13
ATOM     13  O   UNL     1      22.670   3.031  29.341  1.00  0.00    -0.497 OA
ATOM     14  C   UNL     1      22.113   2.199  28.331  1.00  0.00     0.278 C 
ENDBRANCH   4  13
ENDBRANCH   1   3
BRANCH   1  15
ATOM     15  C   UNL     1      26.889   4.632  35.055  1.00  0.00     0.310 C 
ATOM     16  O   UNL     1      27.811   4.375  34.297  1.00  0.00    -0.252 OA
BRANCH  15  17
ATOM     17  O   UNL     1      26.530   5.920  35.254  1.00  0.00    -0.481 OA
ATOM     18  H   UNL     1      25.571   5.926  35.055  1.00  0.00     0.296 HD
ENDBRANCH  15  17
ENDBRANCH   1  15
TORSDOF 4
ENDMDL
MODEL 6
REMARK VINA RESULT:      -7.9      3.236      4.854
REMARK SMILES COc1ccc2ccc(C(C)C(=O)O)cc2c1
REMARK SMILES IDX 10 1 11 2 9 3 3 4 17 5 4 6 16 7 5 8 15 9 6 10 7 11 8 12 2 13
REMARK SMILES IDX 1 14 12 15 13 16 14 17
REMARK H PARENT 14 18
REMARK Flexibility Score: inf
ROOT
ATOM      1  C   UNL     1      22.414  -0.580  36.368  1.00  0.00     0.126 C 
ATOM      2  C   UNL     1      23.454  -1.481  37.035  1.00  0.00     0.025 C 
ENDROOT
BRANCH   1   3
ATOM      3  C   UNL     1      23.045   0.337  35.331  1.00  0.00    -0.033 A 
ATOM      4  C   UNL     1      26.144   3.980  34.275  1.00  0.00     0.119 A 
ATOM      5  C   UNL     1      25.536   3.128  35.202  1.00  0.00     0.055 A 
ATOM      6  C   UNL     1      25.812   3.867  32.927  1.00  0.00     0.047 A 
ATOM      7  C   UNL     1      24.597   2.162  34.802  1.00  0.00    -0.014 A 
ATOM      8  C   UNL     1      24.879   2.911  32.512  1.00  0.00     0.012 A 
ATOM      9  C   UNL     1      23.983   1.303  35.732  1.00  0.00     0.013 A 
ATOM     10  C   UNL     1      24.265   2.053  33.437  1.00  0.00    -0.018 A 
ATOM     11  C   UNL     1      23.328   1.090  33.035  1.00  0.00     0.009 A 
ATOM     12  C   UNL     1      22.728   0.242  33.970  1.00  0.00     0.005 A 
BRANCH   4  13
ATOM     13  O   UNL     1      27.036   4.867  34.812  1.00  0.00    -0.497 OA
ATOM     14  C   UNL     1      26.594   5.627  35.930  1.00  0.00     0.278 C 
ENDBRANCH   4  13
ENDBRANCH   1   3
BRANCH   1  15
ATOM     15  C   UNL     1      21.288  -1.437  35.813  1.00  0.00     0.310 C 
ATOM     16  O   UNL     1      20.213  -1.074  35.363  1.00  0.00    -0.252 OA
BRANCH  15  17
ATOM     17  O   UNL     1      21.603  -2.751  35.809  1.00  0.00    -0.481 OA
ATOM     18  H   UNL     1      20.734  -3.196  35.718  1.00  0.00     0.296 HD
ENDBRANCH  15  17
ENDBRANCH   1  15
TORSDOF 4
ENDMDL
MODEL 7
REMARK VINA RESULT:      -7.7      3.660      5.352
REMARK SMILES COc1ccc2ccc(C(C)C(=O)O)cc2c1
REMARK SMILES IDX 10 1 11 2 9 3 3 4 17 5 4 6 16 7 5 8 15 9 6 10 7 11 8 12 2 13
REMARK SMILES IDX 1 14 12 15 13 16 14 17
REMARK H PARENT 14 18
REMARK Flexibility Score: inf
ROOT
ATOM      1  C   UNL     1      21.289  -1.336  34.942  1.00  0.00     0.126 C 
ATOM      2  C   UNL     1      19.879  -0.798  34.691  1.00  0.00     0.025 C 
ENDROOT
BRANCH   1   3
ATOM      3  C   UNL     1      22.346  -0.265  34.725  1.00  0.00    -0.033 A 
ATOM      4  C   UNL     1      24.210   3.293  31.922  1.00  0.00     0.119 A 
ATOM      5  C   UNL     1      23.260   2.293  32.149  1.00  0.00     0.055 A 
ATOM      6  C   UNL     1      25.197   3.525  32.878  1.00  0.00     0.047 A 
ATOM      7  C   UNL     1      23.280   1.517  33.320  1.00  0.00    -0.014 A 
ATOM      8  C   UNL     1      25.231   2.762  34.049  1.00  0.00     0.012 A 
ATOM      9  C   UNL     1      22.326   0.510  33.553  1.00  0.00     0.013 A 
ATOM     10  C   UNL     1      24.280   1.756  34.284  1.00  0.00    -0.018 A 
ATOM     11  C   UNL     1      24.303   0.984  35.454  1.00  0.00     0.009 A 
ATOM     12  C   UNL     1      23.347  -0.013  35.672  1.00  0.00     0.005 A 
BRANCH   4  13
ATOM     13  O   UNL     1      24.063   3.964  30.739  1.00  0.00    -0.497 OA
ATOM     14  C   UNL     1      23.176   3.396  29.783  1.00  0.00     0.278 C 
ENDBRANCH   4  13
ENDBRANCH   1   3
BRANCH   1  15
ATOM     15  C   UNL     1      21.346  -1.973  36.320  1.00  0.00     0.310 C 
ATOM     16  O   UNL     1      20.801  -1.603  37.347  1.00  0.00    -0.252 OA
BRANCH  15  17
ATOM     17  O   UNL     1      22.073  -3.113  36.325  1.00  0.00    -0.481 OA
ATOM     18  H   UNL     1      21.982  -3.441  37.244  1.00  0.00     0.296 HD
ENDBRANCH  15  17
ENDBRANCH   1  15
TORSDOF 4
ENDMDL
MODEL 8
REMARK VINA RESULT:      -7.6      4.031      5.776
REMARK SMILES COc1ccc2ccc(C(C)C(=O)O)cc2c1
REMARK SMILES IDX 10 1 11 2 9 3 3 4 17 5 4 6 16 7 5 8 15 9 6 10 7 11 8 12 2 13
REMARK SMILES IDX 1 14 12 15 13 16 14 17
REMARK H PARENT 14 18
REMARK Flexibility Score: inf
ROOT
ATOM      1  C   UNL     1      22.280  -1.429  37.088  1.00  0.00     0.126 C 
ATOM      2  C   UNL     1      23.695  -1.865  37.475  1.00  0.00     0.025 C 
ENDROOT
BRANCH   1   3
ATOM      3  C   UNL     1      22.268  -0.653  35.780  1.00  0.00    -0.033 A 
ATOM      4  C   UNL     1      24.359   2.661  32.842  1.00  0.00     0.119 A 
ATOM      5  C   UNL     1      24.333   1.938  34.038  1.00  0.00     0.055 A 
ATOM      6  C   UNL     1      23.356   2.454  31.899  1.00  0.00     0.047 A 
ATOM      7  C   UNL     1      23.316   1.008  34.308  1.00  0.00    -0.014 A 
ATOM      8  C   UNL     1      22.336   1.531  32.152  1.00  0.00     0.012 A 
ATOM      9  C   UNL     1      23.286   0.278  35.511  1.00  0.00     0.013 A 
ATOM     10  C   UNL     1      22.303   0.802  33.350  1.00  0.00    -0.018 A 
ATOM     11  C   UNL     1      21.286  -0.126  33.617  1.00  0.00     0.009 A 
ATOM     12  C   UNL     1      21.270  -0.845  34.816  1.00  0.00     0.005 A 
BRANCH   4  13
ATOM     13  O   UNL     1      25.410   3.529  32.721  1.00  0.00    -0.497 OA
ATOM     14  C   UNL     1      26.199   3.750  33.883  1.00  0.00     0.278 C 
ENDBRANCH   4  13
ENDBRANCH   1   3
BRANCH   1  15
ATOM     15  C   UNL     1      21.365  -2.643  37.080  1.00  0.00     0.310 C 
ATOM     16  O   UNL     1      20.242  -2.746  37.545  1.00  0.00    -0.252 OA
BRANCH  15  17
ATOM     17  O   UNL     1      21.912  -3.689  36.422  1.00  0.00    -0.481 OA
ATOM     18  H   UNL     1      22.793  -3.355  36.149  1.00  0.00     0.296 HD
ENDBRANCH  15  17
ENDBRANCH   1  15
TORSDOF 4
ENDMDL
MODEL 9
REMARK VINA RESULT:      -7.4      1.383      6.149
REMARK SMILES COc1ccc2ccc(C(C)C(=O)O)cc2c1
REMARK SMILES IDX 10 1 11 2 9 3 3 4 17 5 4 6 16 7 5 8 15 9 6 10 7 11 8 12 2 13
REMARK SMILES IDX 1 14 12 15 13 16 14 17
REMARK H PARENT 14 18
REMARK Flexibility Score: inf
ROOT
ATOM      1  C   UNL     1      26.371   4.689  34.645  1.00  0.00     0.126 C 
ATOM      2  C   UNL     1      27.808   4.187  34.490  1.00  0.00     0.025 C 
ENDROOT
BRANCH   1   3
ATOM      3  C   UNL     1      25.363   3.558  34.514  1.00  0.00    -0.033 A 
ATOM      4  C   UNL     1      21.537   1.590  32.173  1.00  0.00     0.119 A 
ATOM      5  C   UNL     1      22.473   2.617  32.329  1.00  0.00     0.055 A 
ATOM      6  C   UNL     1      21.571   0.501  33.041  1.00  0.00     0.047 A 
ATOM      7  C   UNL     1      23.445   2.573  33.342  1.00  0.00    -0.014 A 
ATOM      8  C   UNL     1      22.532   0.441  34.055  1.00  0.00     0.012 A 
ATOM      9  C   UNL     1      24.389   3.604  33.502  1.00  0.00     0.013 A 
ATOM     10  C   UNL     1      23.475   1.468  34.217  1.00  0.00    -0.018 A 
ATOM     11  C   UNL     1      24.445   1.422  35.228  1.00  0.00     0.009 A 
ATOM     12  C   UNL     1      25.377   2.453  35.374  1.00  0.00     0.005 A 
BRANCH   4  13
ATOM     13  O   UNL     1      20.654   1.772  31.145  1.00  0.00    -0.497 OA
ATOM     14  C   UNL     1      21.074   2.612  30.077  1.00  0.00     0.278 C 
ENDBRANCH   4  13
ENDBRANCH   1   3
BRANCH   1  15
ATOM     15  C   UNL     1      26.247   5.464  35.946  1.00  0.00     0.310 C 
ATOM     16  O   UNL     1      25.623   5.162  36.949  1.00  0.00    -0.252 OA
BRANCH  15  17
ATOM     17  O   UNL     1      26.981   6.600  35.934  1.00  0.00    -0.481 OA
ATOM     18  H   UNL     1      26.691   7.054  35.115  1.00  0.00     0.296 HD
ENDBRANCH  15  17
ENDBRANCH   1  15
TORSDOF 4
ENDMDL
