MODEL 1
REMARK VINA RESULT:      -7.4      0.000      0.000
REMARK SMILES O=C(O)Cc1ccccc1Nc1c(Cl)cccc1Cl
REMARK SMILES IDX 5 1 6 2 7 3 8 4 9 5 10 6 4 7 2 8 1 9 3 10 11 12 12 14 13 15
REMARK SMILES IDX 18 16 14 17 15 18 17 19 19 20 16 21
REMARK H PARENT 3 11 11 13
REMARK Flexibility Score: inf
ROOT
ATOM      1  C   UNL     1      22.287   1.651  33.516  1.00  0.00    -0.013 A 
ATOM      2  C   UNL     1      21.717   0.371  33.621  1.00  0.00     0.006 A 
ATOM      3  C   UNL     1      22.112  -0.501  34.634  1.00  0.00     0.000 A 
ATOM      4  C   UNL     1      23.080  -0.106  35.552  1.00  0.00     0.002 A 
ATOM      5  C   UNL     1      23.657   1.160  35.454  1.00  0.00     0.026 A 
ATOM      6  C   UNL     1      23.289   2.044  34.428  1.00  0.00     0.042 A 
ENDROOT
BRANCH   1   7
ATOM      7  C   UNL     1      21.860   2.561  32.386  1.00  0.00     0.160 C 
BRANCH   7   8
ATOM      8  C   UNL     1      21.639   1.823  31.089  1.00  0.00     0.307 C 
ATOM      9  O   UNL     1      22.406   1.054  30.534  1.00  0.00    -0.252 OA
BRANCH   8  10
ATOM     10  O   UNL     1      20.407   2.031  30.578  1.00  0.00    -0.481 OA
ATOM     11  H   UNL     1      20.540   1.891  29.617  1.00  0.00     0.296 HD
ENDBRANCH   8  10
ENDBRANCH   7   8
ENDBRANCH   1   7
BRANCH   6  12
ATOM     12  N   UNL     1      23.816   3.364  34.357  1.00  0.00    -0.353 N 
ATOM     13  H   UNL     1      23.451   3.877  35.164  1.00  0.00     0.167 HD
BRANCH  12  14
ATOM     14  C   UNL     1      25.194   3.703  34.193  1.00  0.00     0.076 A 
ATOM     15  C   UNL     1      25.964   4.068  35.317  1.00  0.00     0.066 A 
ATOM     16  C   UNL     1      25.836   3.696  32.938  1.00  0.00     0.066 A 
ATOM     17  Cl  UNL     1      25.249   4.119  36.894  1.00  0.00    -0.082 Cl
ATOM     18  C   UNL     1      27.321   4.386  35.203  1.00  0.00     0.023 A 
ATOM     19  C   UNL     1      27.196   4.015  32.825  1.00  0.00     0.023 A 
ATOM     20  Cl  UNL     1      24.989   3.364  31.466  1.00  0.00    -0.082 Cl
ATOM     21  C   UNL     1      27.938   4.355  33.955  1.00  0.00     0.003 A 
ENDBRANCH  12  14
ENDBRANCH   6  12
TORSDOF 5
ENDMDL
MODEL 2
REMARK VINA RESULT:      -7.3      2.312      3.360
REMARK SMILES O=C(O)Cc1ccccc1Nc1c(Cl)cccc1Cl
REMARK SMILES IDX 5 1 6 2 7 3 8 4 9 5 10 6 4 7 2 8 1 9 3 10 11 12 12 14 13 15
REMARK SMILES IDX 18 16 14 17 15 18 17 19 19 20 16 21
REMARK H PARENT 3 11 11 13
REMARK Flexibility Score: inf
ROOT
ATOM      1  C   UNL     1      23.521   1.099  33.696  1.00  0.00    -0.013 A 
ATOM      2  C   UNL     1      22.481   0.912  32.770  1.00  0.00     0.006 A 
ATOM      3  C   UNL     1      22.332   1.774  31.685  1.00  0.00     0.000 A 
ATOM      4  C   UNL     1      23.219   2.831  31.513  1.00  0.00     0.002 A 
ATOM      5  C   UNL     1      24.252   3.031  32.429  1.00  0.00     0.026 A 
ATOM      6  C   UNL     1      24.404   2.187  33.539  1.00  0.00     0.042 A 
ENDROOT
BRANCH   1   7
ATOM      7  C   UNL     1      23.635   0.166  34.880  1.00  0.00     0.160 C 
BRANCH   7   8
ATOM      8  C   UNL     1      22.337  -0.529  35.207  1.00  0.00     0.307 C 
ATOM      9  O   UNL     1      21.275  -0.436  34.613  1.00  0.00    -0.252 OA
BRANCH   8  10
ATOM     10  O   UNL     1      22.456  -1.388  36.242  1.00  0.00    -0.481 OA
ATOM     11  H   UNL     1      21.883  -2.137  35.974  1.00  0.00     0.296 HD
ENDBRANCH   8  10
ENDBRANCH   7   8
ENDBRANCH   1   7
BRANCH   6  12
ATOM     12  N   UNL     1      25.496   2.334  34.442  1.00  0.00    -0.353 N 
ATOM     13  H   UNL     1      26.315   1.914  33.994  1.00  0.00     0.167 HD
BRANCH  12  14
ATOM     14  C   UNL     1      25.898   3.552  35.069  1.00  0.00     0.076 A 
ATOM     15  C   UNL     1      25.175   4.041  36.178  1.00  0.00     0.066 A 
ATOM     16  C   UNL     1      27.000   4.311  34.626  1.00  0.00     0.066 A 
ATOM     17  Cl  UNL     1      23.796   3.181  36.777  1.00  0.00    -0.082 Cl
ATOM     18  C   UNL     1      25.548   5.218  36.835  1.00  0.00     0.023 A 
ATOM     19  C   UNL     1      27.373   5.490  35.286  1.00  0.00     0.023 A 
ATOM     20  Cl  UNL     1      27.915   3.881  33.221  1.00  0.00    -0.082 Cl
ATOM     21  C   UNL     1      26.651   5.941  36.390  1.00  0.00     0.003 A 
ENDBRANCH  12  14
ENDBRANCH   6  12
TORSDOF 5
ENDMDL
MODEL 3
REMARK VINA RESULT:      -7.2      0.106      2.098
REMARK SMILES O=C(O)Cc1ccccc1Nc1c(Cl)cccc1Cl
REMARK SMILES IDX 5 1 6 2 7 3 8 4 9 5 10 6 4 7 2 8 1 9 3 10 11 12 12 14 13 15
REMARK SMILES IDX 18 16 14 17 15 18 17 19 19 20 16 21
REMARK H PARENT 3 11 11 13
REMARK Flexibility Score: inf
ROOT
ATOM      1  C   UNL     1      22.238   1.666  33.418  1.00  0.00    -0.013 A 
ATOM      2  C   UNL     1      21.659   0.390  33.523  1.00  0.00     0.006 A 
ATOM      3  C   UNL     1      22.042  -0.482  34.541  1.00  0.00     0.000 A 
ATOM      4  C   UNL     1      23.005  -0.090  35.464  1.00  0.00     0.002 A 
ATOM      5  C   UNL     1      23.591   1.173  35.367  1.00  0.00     0.026 A 
ATOM      6  C   UNL     1      23.235   2.055  34.336  1.00  0.00     0.042 A 
ENDROOT
BRANCH   1   7
ATOM      7  C   UNL     1      21.824   2.575  32.283  1.00  0.00     0.160 C 
BRANCH   7   8
ATOM      8  C   UNL     1      21.604   1.835  30.988  1.00  0.00     0.307 C 
ATOM      9  O   UNL     1      22.383   1.088  30.419  1.00  0.00    -0.252 OA
BRANCH   8  10
ATOM     10  O   UNL     1      20.359   2.010  30.496  1.00  0.00    -0.481 OA
ATOM     11  H   UNL     1      19.945   1.130  30.625  1.00  0.00     0.296 HD
ENDBRANCH   8  10
ENDBRANCH   7   8
ENDBRANCH   1   7
BRANCH   6  12
ATOM     12  N   UNL     1      23.771   3.373  34.266  1.00  0.00    -0.353 N 
ATOM     13  H   UNL     1      23.331   3.917  35.013  1.00  0.00     0.167 HD
BRANCH  12  14
ATOM     14  C   UNL     1      25.159   3.705  34.222  1.00  0.00     0.076 A 
ATOM     15  C   UNL     1      25.849   3.671  32.992  1.00  0.00     0.066 A 
ATOM     16  C   UNL     1      25.893   4.069  35.370  1.00  0.00     0.066 A 
ATOM     17  Cl  UNL     1      25.028   3.217  31.535  1.00  0.00    -0.082 Cl
ATOM     18  C   UNL     1      27.203   4.009  32.901  1.00  0.00     0.023 A 
ATOM     19  C   UNL     1      27.249   4.409  35.277  1.00  0.00     0.023 A 
ATOM     20  Cl  UNL     1      25.198   4.058  36.955  1.00  0.00    -0.082 Cl
ATOM     21  C   UNL     1      27.902   4.383  34.046  1.00  0.00     0.003 A 
ENDBRANCH  12  14
ENDBRANCH   6  12
TORSDOF 5
ENDMDL
MODEL 4
REMARK VINA RESULT:      -7.2      2.327      3.728
REMARK SMILES O=C(O)Cc1ccccc1Nc1c(Cl)cccc1Cl
REMARK SMILES IDX 5 1 6 2 7 3 8 4 9 5 10 6 4 7 2 8 1 9 3 10 11 12 12 14 13 15
REMARK SMILES IDX 18 16 14 17 15 18 17 19 19 20 16 21
REMARK H PARENT 3 11 11 13
REMARK Flexibility Score: inf
ROOT
ATOM      1  C   UNL     1      23.535   1.139  33.669  1.00  0.00    -0.013 A 
ATOM      2  C   UNL     1      22.444   0.938  32.806  1.00  0.00     0.006 A 
ATOM      3  C   UNL     1      22.239   1.778  31.713  1.00  0.00     0.000 A 
ATOM      4  C   UNL     1      23.119   2.827  31.470  1.00  0.00     0.002 A 
ATOM      5  C   UNL     1      24.203   3.040  32.323  1.00  0.00     0.026 A 
ATOM      6  C   UNL     1      24.413   2.219  33.441  1.00  0.00     0.042 A 
ENDROOT
BRANCH   1   7
ATOM      7  C   UNL     1      23.711   0.229  34.864  1.00  0.00     0.160 C 
BRANCH   7   8
ATOM      8  C   UNL     1      22.444  -0.499  35.240  1.00  0.00     0.307 C 
ATOM      9  O   UNL     1      21.366  -0.454  34.670  1.00  0.00    -0.252 OA
BRANCH   8  10
ATOM     10  O   UNL     1      22.616  -1.328  36.291  1.00  0.00    -0.481 OA
ATOM     11  H   UNL     1      21.974  -2.047  36.112  1.00  0.00     0.296 HD
ENDBRANCH   8  10
ENDBRANCH   7   8
ENDBRANCH   1   7
BRANCH   6  12
ATOM     12  N   UNL     1      25.553   2.379  34.278  1.00  0.00    -0.353 N 
ATOM     13  H   UNL     1      26.368   2.073  33.739  1.00  0.00     0.167 HD
BRANCH  12  14
ATOM     14  C   UNL     1      25.902   3.566  34.990  1.00  0.00     0.076 A 
ATOM     15  C   UNL     1      27.036   4.310  34.599  1.00  0.00     0.066 A 
ATOM     16  C   UNL     1      25.161   4.042  36.091  1.00  0.00     0.066 A 
ATOM     17  Cl  UNL     1      28.014   3.787  33.268  1.00  0.00    -0.082 Cl
ATOM     18  C   UNL     1      27.401   5.490  35.255  1.00  0.00     0.023 A 
ATOM     19  C   UNL     1      25.527   5.224  36.747  1.00  0.00     0.023 A 
ATOM     20  Cl  UNL     1      23.808   3.178  36.738  1.00  0.00    -0.082 Cl
ATOM     21  C   UNL     1      26.642   5.949  36.328  1.00  0.00     0.003 A 
ENDBRANCH  12  14
ENDBRANCH   6  12
TORSDOF 5
ENDMDL
MODEL 5
REMARK VINA RESULT:      -7.2      3.172      5.934
REMARK SMILES O=C(O)Cc1ccccc1Nc1c(Cl)cccc1Cl
REMARK SMILES IDX 5 1 6 2 7 3 8 4 9 5 10 6 4 7 2 8 1 9 3 10 11 12 12 14 13 15
REMARK SMILES IDX 18 16 14 17 15 18 17 19 19 20 16 21
REMARK H PARENT 3 11 11 13
REMARK Flexibility Score: inf
ROOT
ATOM      1  C   UNL     1      26.187   4.012  34.543  1.00  0.00    -0.013 A 
ATOM      2  C   UNL     1      26.458   5.129  35.351  1.00  0.00     0.006 A 
ATOM      3  C   UNL     1      25.817   5.291  36.577  1.00  0.00     0.000 A 
ATOM      4  C   UNL     1      24.899   4.340  37.011  1.00  0.00     0.002 A 
ATOM      5  C   UNL     1      24.617   3.229  36.215  1.00  0.00     0.026 A 
ATOM      6  C   UNL     1      25.236   3.061  34.967  1.00  0.00     0.042 A 
ENDROOT
BRANCH   1   7
ATOM      7  C   UNL     1      26.875   3.883  33.203  1.00  0.00     0.160 C 
BRANCH   7   8
ATOM      8  C   UNL     1      28.356   4.161  33.273  1.00  0.00     0.307 C 
ATOM      9  O   UNL     1      28.996   4.950  32.598  1.00  0.00    -0.252 OA
BRANCH   8  10
ATOM     10  O   UNL     1      28.965   3.475  34.265  1.00  0.00    -0.481 OA
ATOM     11  H   UNL     1      29.903   3.467  33.983  1.00  0.00     0.296 HD
ENDBRANCH   8  10
ENDBRANCH   7   8
ENDBRANCH   1   7
BRANCH   6  12
ATOM     12  N   UNL     1      25.014   1.897  34.177  1.00  0.00    -0.353 N 
ATOM     13  H   UNL     1      25.593   1.151  34.571  1.00  0.00     0.167 HD
BRANCH  12  14
ATOM     14  C   UNL     1      23.738   1.350  33.843  1.00  0.00     0.076 A 
ATOM     15  C   UNL     1      23.042   1.835  32.715  1.00  0.00     0.066 A 
ATOM     16  C   UNL     1      23.121   0.333  34.600  1.00  0.00     0.066 A 
ATOM     17  Cl  UNL     1      23.718   3.096  31.739  1.00  0.00    -0.082 Cl
ATOM     18  C   UNL     1      21.800   1.312  32.340  1.00  0.00     0.023 A 
ATOM     19  C   UNL     1      21.878  -0.190  34.222  1.00  0.00     0.023 A 
ATOM     20  Cl  UNL     1      23.816  -0.284  36.060  1.00  0.00    -0.082 Cl
ATOM     21  C   UNL     1      21.220   0.295  33.093  1.00  0.00     0.003 A 
ENDBRANCH  12  14
ENDBRANCH   6  12
TORSDOF 5
ENDMDL
MODEL 6
REMARK VINA RESULT:      -7.2      3.170      5.672
REMARK SMILES O=C(O)Cc1ccccc1Nc1c(Cl)cccc1Cl
REMARK SMILES IDX 5 1 6 2 7 3 8 4 9 5 10 6 4 7 2 8 1 9 3 10 11 12 12 14 13 15
REMARK SMILES IDX 18 16 14 17 15 18 17 19 19 20 16 21
REMARK H PARENT 3 11 11 13
REMARK Flexibility Score: inf
ROOT
ATOM      1  C   UNL     1      26.186   4.032  34.561  1.00  0.00    -0.013 A 
ATOM      2  C   UNL     1      26.453   5.161  35.354  1.00  0.00     0.006 A 
ATOM      3  C   UNL     1      25.812   5.337  36.578  1.00  0.00     0.000 A 
ATOM      4  C   UNL     1      24.897   4.389  37.025  1.00  0.00     0.002 A 
ATOM      5  C   UNL     1      24.619   3.267  36.244  1.00  0.00     0.026 A 
ATOM      6  C   UNL     1      25.238   3.084  34.999  1.00  0.00     0.042 A 
ENDROOT
BRANCH   1   7
ATOM      7  C   UNL     1      26.874   3.887  33.223  1.00  0.00     0.160 C 
BRANCH   7   8
ATOM      8  C   UNL     1      28.352   4.178  33.288  1.00  0.00     0.307 C 
ATOM      9  O   UNL     1      28.976   4.999  32.635  1.00  0.00    -0.252 OA
BRANCH   8  10
ATOM     10  O   UNL     1      28.979   3.462  34.246  1.00  0.00    -0.481 OA
ATOM     11  H   UNL     1      29.896   3.807  34.214  1.00  0.00     0.296 HD
ENDBRANCH   8  10
ENDBRANCH   7   8
ENDBRANCH   1   7
BRANCH   6  12
ATOM     12  N   UNL     1      25.018   1.909  34.224  1.00  0.00    -0.353 N 
ATOM     13  H   UNL     1      25.544   1.153  34.670  1.00  0.00     0.167 HD
BRANCH  12  14
ATOM     14  C   UNL     1      23.745   1.401  33.825  1.00  0.00     0.076 A 
ATOM     15  C   UNL     1      23.132   0.377  34.579  1.00  0.00     0.066 A 
ATOM     16  C   UNL     1      23.055   1.875  32.691  1.00  0.00     0.066 A 
ATOM     17  Cl  UNL     1      23.918  -0.276  35.977  1.00  0.00    -0.082 Cl
ATOM     18  C   UNL     1      21.877  -0.134  34.235  1.00  0.00     0.023 A 
ATOM     19  C   UNL     1      21.797   1.363  32.348  1.00  0.00     0.023 A 
ATOM     20  Cl  UNL     1      23.732   3.057  31.623  1.00  0.00    -0.082 Cl
ATOM     21  C   UNL     1      21.207   0.363  33.121  1.00  0.00     0.003 A 
ENDBRANCH  12  14
ENDBRANCH   6  12
TORSDOF 5
ENDMDL
MODEL 7
REMARK VINA RESULT:      -7.1      3.490      5.751
REMARK SMILES O=C(O)Cc1ccccc1Nc1c(Cl)cccc1Cl
REMARK SMILES IDX 5 1 6 2 7 3 8 4 9 5 10 6 4 7 2 8 1 9 3 10 11 12 12 14 13 15
REMARK SMILES IDX 18 16 14 17 15 18 17 19 19 20 16 21
REMARK H PARENT 3 11 11 13
REMARK Flexibility Score: inf
ROOT
ATOM      1  C   UNL     1      25.809   3.714  34.094  1.00  0.00    -0.013 A 
ATOM      2  C   UNL     1      26.024   4.399  35.302  1.00  0.00     0.006 A 
ATOM      3  C   UNL     1      25.072   4.362  36.319  1.00  0.00     0.000 A 
ATOM      4  C   UNL     1      23.895   3.642  36.141  1.00  0.00     0.002 A 
ATOM      5  C   UNL     1      23.667   2.963  34.943  1.00  0.00     0.026 A 
ATOM      6  C   UNL     1      24.604   3.007  33.900  1.00  0.00     0.042 A 
ENDROOT
BRANCH   1   7
ATOM      7  C   UNL     1      26.848   3.802  32.999  1.00  0.00     0.160 C 
BRANCH   7   8
ATOM      8  C   UNL     1      28.228   4.111  33.521  1.00  0.00     0.307 C 
ATOM      9  O   UNL     1      28.778   3.626  34.497  1.00  0.00    -0.252 OA
BRANCH   8  10
ATOM     10  O   UNL     1      28.899   4.977  32.732  1.00  0.00    -0.481 OA
ATOM     11  H   UNL     1      29.779   4.555  32.640  1.00  0.00     0.296 HD
ENDBRANCH   8  10
ENDBRANCH   7   8
ENDBRANCH   1   7
BRANCH   6  12
ATOM     12  N   UNL     1      24.419   2.262  32.701  1.00  0.00    -0.353 N 
ATOM     13  H   UNL     1      24.512   1.272  32.945  1.00  0.00     0.167 HD
BRANCH  12  14
ATOM     14  C   UNL     1      23.325   2.403  31.794  1.00  0.00     0.076 A 
ATOM     15  C   UNL     1      23.407   3.337  30.739  1.00  0.00     0.066 A 
ATOM     16  C   UNL     1      22.141   1.646  31.902  1.00  0.00     0.066 A 
ATOM     17  Cl  UNL     1      24.818   4.322  30.543  1.00  0.00    -0.082 Cl
ATOM     18  C   UNL     1      22.367   3.493  29.816  1.00  0.00     0.023 A 
ATOM     19  C   UNL     1      21.101   1.802  30.976  1.00  0.00     0.023 A 
ATOM     20  Cl  UNL     1      21.867   0.537  33.202  1.00  0.00    -0.082 Cl
ATOM     21  C   UNL     1      21.215   2.720  29.933  1.00  0.00     0.003 A 
ENDBRANCH  12  14
ENDBRANCH   6  12
TORSDOF 5
ENDMDL
MODEL 8
REMARK VINA RESULT:      -7.1      3.467      5.594
REMARK SMILES O=C(O)Cc1ccccc1Nc1c(Cl)cccc1Cl
REMARK SMILES IDX 5 1 6 2 7 3 8 4 9 5 10 6 4 7 2 8 1 9 3 10 11 12 12 14 13 15
REMARK SMILES IDX 18 16 14 17 15 18 17 19 19 20 16 21
REMARK H PARENT 3 11 11 13
REMARK Flexibility Score: inf
ROOT
ATOM      1  C   UNL     1      25.810   3.714  34.125  1.00  0.00    -0.013 A 
ATOM      2  C   UNL     1      26.044   4.421  35.316  1.00  0.00     0.006 A 
ATOM      3  C   UNL     1      25.113   4.393  36.353  1.00  0.00     0.000 A 
ATOM      4  C   UNL     1      23.940   3.660  36.212  1.00  0.00     0.002 A 
ATOM      5  C   UNL     1      23.694   2.958  35.031  1.00  0.00     0.026 A 
ATOM      6  C   UNL     1      24.609   2.993  33.968  1.00  0.00     0.042 A 
ENDROOT
BRANCH   1   7
ATOM      7  C   UNL     1      26.826   3.792  33.007  1.00  0.00     0.160 C 
BRANCH   7   8
ATOM      8  C   UNL     1      28.218   4.097  33.498  1.00  0.00     0.307 C 
ATOM      9  O   UNL     1      28.781   3.627  34.474  1.00  0.00    -0.252 OA
BRANCH   8  10
ATOM     10  O   UNL     1      28.883   4.939  32.679  1.00  0.00    -0.481 OA
ATOM     11  H   UNL     1      28.505   5.814  32.908  1.00  0.00     0.296 HD
ENDBRANCH   8  10
ENDBRANCH   7   8
ENDBRANCH   1   7
BRANCH   6  12
ATOM     12  N   UNL     1      24.405   2.225  32.786  1.00  0.00    -0.353 N 
ATOM     13  H   UNL     1      24.420   1.239  33.062  1.00  0.00     0.167 HD
BRANCH  12  14
ATOM     14  C   UNL     1      23.352   2.415  31.842  1.00  0.00     0.076 A 
ATOM     15  C   UNL     1      22.166   1.658  31.955  1.00  0.00     0.066 A 
ATOM     16  C   UNL     1      23.438   3.334  30.776  1.00  0.00     0.066 A 
ATOM     17  Cl  UNL     1      21.983   0.494  33.224  1.00  0.00    -0.082 Cl
ATOM     18  C   UNL     1      21.101   1.828  31.063  1.00  0.00     0.023 A 
ATOM     19  C   UNL     1      22.371   3.503  29.885  1.00  0.00     0.023 A 
ATOM     20  Cl  UNL     1      24.870   4.254  30.461  1.00  0.00    -0.082 Cl
ATOM     21  C   UNL     1      21.203   2.755  30.030  1.00  0.00     0.003 A 
ENDBRANCH  12  14
ENDBRANCH   6  12
TORSDOF 5
ENDMDL
MODEL 9
REMARK VINA RESULT:      -7.0      2.945      5.506
REMARK SMILES O=C(O)Cc1ccccc1Nc1c(Cl)cccc1Cl
REMARK SMILES IDX 5 1 6 2 7 3 8 4 9 5 10 6 4 7 2 8 1 9 3 10 11 12 12 14 13 15
REMARK SMILES IDX 18 16 14 17 15 18 17 19 19 20 16 21
REMARK H PARENT 3 11 11 13
REMARK Flexibility Score: inf
ROOT
ATOM      1  C   UNL     1      23.092   1.651  33.475  1.00  0.00    -0.013 A 
ATOM      2  C   UNL     1      23.405   3.016  33.357  1.00  0.00     0.006 A 
ATOM      3  C   UNL     1      23.895   3.730  34.448  1.00  0.00     0.000 A 
ATOM      4  C   UNL     1      24.078   3.090  35.670  1.00  0.00     0.002 A 
ATOM      5  C   UNL     1      23.765   1.736  35.802  1.00  0.00     0.026 A 
ATOM      6  C   UNL     1      23.249   1.007  34.720  1.00  0.00     0.042 A 
ENDROOT
BRANCH   1   7
ATOM      7  C   UNL     1      22.531   0.914  32.280  1.00  0.00     0.160 C 
BRANCH   7   8
ATOM      8  C   UNL     1      21.594   1.759  31.455  1.00  0.00     0.307 C 
ATOM      9  O   UNL     1      20.478   2.145  31.762  1.00  0.00    -0.252 OA
BRANCH   8  10
ATOM     10  O   UNL     1      22.144   2.154  30.287  1.00  0.00    -0.481 OA
ATOM     11  H   UNL     1      21.680   1.600  29.625  1.00  0.00     0.296 HD
ENDBRANCH   8  10
ENDBRANCH   7   8
ENDBRANCH   1   7
BRANCH   6  12
ATOM     12  N   UNL     1      22.994  -0.390  34.819  1.00  0.00    -0.353 N 
ATOM     13  H   UNL     1      23.897  -0.867  34.747  1.00  0.00     0.167 HD
BRANCH  12  14
ATOM     14  C   UNL     1      22.227  -1.026  35.842  1.00  0.00     0.076 A 
ATOM     15  C   UNL     1      22.873  -1.523  36.994  1.00  0.00     0.066 A 
ATOM     16  C   UNL     1      20.829  -1.190  35.758  1.00  0.00     0.066 A 
ATOM     17  Cl  UNL     1      24.590  -1.379  37.171  1.00  0.00    -0.082 Cl
ATOM     18  C   UNL     1      22.157  -2.133  38.029  1.00  0.00     0.023 A 
ATOM     19  C   UNL     1      20.114  -1.801  36.796  1.00  0.00     0.023 A 
ATOM     20  Cl  UNL     1      19.924  -0.716  34.361  1.00  0.00    -0.082 Cl
ATOM     21  C   UNL     1      20.775  -2.268  37.931  1.00  0.00     0.003 A 
ENDBRANCH  12  14
ENDBRANCH   6  12
TORSDOF 5
ENDMDL
