MODEL 1
REMARK VINA RESULT:      -8.4      0.000      0.000
REMARK SMILES CC(C(=O)O)c1cccc(C(=O)c2ccccc2)c1
REMARK SMILES IDX 6 1 7 2 8 3 9 4 10 5 19 6 2 7 1 8 3 9 4 10 5 11 11 13 12 14
REMARK SMILES IDX 13 15 14 16 18 17 15 18 17 19 16 20
REMARK H PARENT 5 12
REMARK Flexibility Score: inf
ROOT
ATOM      1  C   UNL     1      23.991   2.931  34.689  1.00  0.00    -0.033 A 
ATOM      2  C   UNL     1      24.330   1.648  35.146  1.00  0.00     0.004 A 
ATOM      3  C   UNL     1      23.748   0.511  34.581  1.00  0.00     0.001 A 
ATOM      4  C   UNL     1      22.810   0.639  33.558  1.00  0.00     0.012 A 
ATOM      5  C   UNL     1      22.442   1.910  33.108  1.00  0.00     0.023 A 
ATOM      6  C   UNL     1      23.041   3.049  33.661  1.00  0.00     0.016 A 
ENDROOT
BRANCH   1   7
ATOM      7  C   UNL     1      24.645   4.154  35.308  1.00  0.00     0.126 C 
ATOM      8  C   UNL     1      24.906   3.970  36.804  1.00  0.00     0.025 C 
BRANCH   7   9
ATOM      9  C   UNL     1      25.924   4.536  34.584  1.00  0.00     0.310 C 
ATOM     10  O   UNL     1      26.249   4.234  33.447  1.00  0.00    -0.252 OA
BRANCH   9  11
ATOM     11  O   UNL     1      26.744   5.297  35.341  1.00  0.00    -0.481 OA
ATOM     12  H   UNL     1      26.146   5.693  36.008  1.00  0.00     0.296 HD
ENDBRANCH   9  11
ENDBRANCH   7   9
ENDBRANCH   1   7
BRANCH   5  13
ATOM     13  C   UNL     1      21.457   2.090  32.011  1.00  0.00     0.193 C 
ATOM     14  O   UNL     1      20.260   2.117  32.283  1.00  0.00    -0.289 OA
BRANCH  13  15
ATOM     15  C   UNL     1      21.888   2.240  30.598  1.00  0.00     0.022 A 
ATOM     16  C   UNL     1      21.050   1.748  29.590  1.00  0.00     0.012 A 
ATOM     17  C   UNL     1      23.119   2.815  30.260  1.00  0.00     0.012 A 
ATOM     18  C   UNL     1      21.425   1.862  28.251  1.00  0.00     0.001 A 
ATOM     19  C   UNL     1      23.491   2.926  28.918  1.00  0.00     0.001 A 
ATOM     20  C   UNL     1      22.642   2.454  27.916  1.00  0.00     0.000 A 
ENDBRANCH  13  15
ENDBRANCH   5  13
TORSDOF 5
ENDMDL
MODEL 2
REMARK VINA RESULT:      -8.4      2.098      4.498
REMARK SMILES CC(C(=O)O)c1cccc(C(=O)c2ccccc2)c1
REMARK SMILES IDX 6 1 7 2 8 3 9 4 10 5 19 6 2 7 1 8 3 9 4 10 5 11 11 13 12 14
REMARK SMILES IDX 13 15 14 16 18 17 15 18 17 19 16 20
REMARK H PARENT 5 12
REMARK Flexibility Score: inf
ROOT
ATOM      1  C   UNL     1      24.533   3.758  34.193  1.00  0.00    -0.033 A 
ATOM      2  C   UNL     1      24.936   4.158  32.910  1.00  0.00     0.004 A 
ATOM      3  C   UNL     1      24.472   3.491  31.774  1.00  0.00     0.001 A 
ATOM      4  C   UNL     1      23.606   2.406  31.904  1.00  0.00     0.012 A 
ATOM      5  C   UNL     1      23.214   1.978  33.176  1.00  0.00     0.023 A 
ATOM      6  C   UNL     1      23.665   2.661  34.314  1.00  0.00     0.016 A 
ENDROOT
BRANCH   1   7
ATOM      7  C   UNL     1      25.039   4.505  35.415  1.00  0.00     0.126 C 
ATOM      8  C   UNL     1      24.777   3.733  36.709  1.00  0.00     0.025 C 
BRANCH   7   9
ATOM      9  C   UNL     1      26.510   4.861  35.291  1.00  0.00     0.310 C 
ATOM     10  O   UNL     1      27.415   4.138  34.907  1.00  0.00    -0.252 OA
BRANCH   9  11
ATOM     11  O   UNL     1      26.772   6.133  35.660  1.00  0.00    -0.481 OA
ATOM     12  H   UNL     1      26.329   6.672  34.972  1.00  0.00     0.296 HD
ENDBRANCH   9  11
ENDBRANCH   7   9
ENDBRANCH   1   7
BRANCH   5  13
ATOM     13  C   UNL     1      22.283   0.836  33.358  1.00  0.00     0.193 C 
ATOM     14  O   UNL     1      21.471   0.581  32.472  1.00  0.00    -0.289 OA
BRANCH  13  15
ATOM     15  C   UNL     1      22.314  -0.003  34.583  1.00  0.00     0.022 A 
ATOM     16  C   UNL     1      21.212  -0.822  34.858  1.00  0.00     0.012 A 
ATOM     17  C   UNL     1      23.389   0.040  35.480  1.00  0.00     0.012 A 
ATOM     18  C   UNL     1      21.200  -1.617  36.004  1.00  0.00     0.001 A 
ATOM     19  C   UNL     1      23.372  -0.757  36.626  1.00  0.00     0.001 A 
ATOM     20  C   UNL     1      22.281  -1.587  36.884  1.00  0.00     0.000 A 
ENDBRANCH  13  15
ENDBRANCH   5  13
TORSDOF 5
ENDMDL
MODEL 3
REMARK VINA RESULT:      -8.2      1.931      4.368
REMARK SMILES CC(C(=O)O)c1cccc(C(=O)c2ccccc2)c1
REMARK SMILES IDX 6 1 7 2 8 3 9 4 10 5 19 6 2 7 1 8 3 9 4 10 5 11 11 13 12 14
REMARK SMILES IDX 13 15 14 16 18 17 15 18 17 19 16 20
REMARK H PARENT 5 12
REMARK Flexibility Score: inf
ROOT
ATOM      1  C   UNL     1      25.344   3.398  33.266  1.00  0.00    -0.033 A 
ATOM      2  C   UNL     1      25.412   4.102  32.054  1.00  0.00     0.004 A 
ATOM      3  C   UNL     1      24.467   3.888  31.048  1.00  0.00     0.001 A 
ATOM      4  C   UNL     1      23.445   2.958  31.234  1.00  0.00     0.012 A 
ATOM      5  C   UNL     1      23.377   2.229  32.425  1.00  0.00     0.023 A 
ATOM      6  C   UNL     1      24.314   2.460  33.441  1.00  0.00     0.016 A 
ENDROOT
BRANCH   1   7
ATOM      7  C   UNL     1      26.373   3.657  34.353  1.00  0.00     0.126 C 
ATOM      8  C   UNL     1      27.740   4.024  33.772  1.00  0.00     0.025 C 
BRANCH   7   9
ATOM      9  C   UNL     1      25.904   4.718  35.333  1.00  0.00     0.310 C 
ATOM     10  O   UNL     1      24.908   4.686  36.036  1.00  0.00    -0.252 OA
BRANCH   9  11
ATOM     11  O   UNL     1      26.732   5.784  35.382  1.00  0.00    -0.481 OA
ATOM     12  H   UNL     1      26.163   6.505  35.724  1.00  0.00     0.296 HD
ENDBRANCH   9  11
ENDBRANCH   7   9
ENDBRANCH   1   7
BRANCH   5  13
ATOM     13  C   UNL     1      22.298   1.239  32.668  1.00  0.00     0.193 C 
ATOM     14  O   UNL     1      21.399   1.120  31.840  1.00  0.00    -0.289 OA
BRANCH  13  15
ATOM     15  C   UNL     1      22.284   0.390  33.886  1.00  0.00     0.022 A 
ATOM     16  C   UNL     1      21.160  -0.410  34.128  1.00  0.00     0.012 A 
ATOM     17  C   UNL     1      23.338   0.405  34.808  1.00  0.00     0.012 A 
ATOM     18  C   UNL     1      21.106  -1.214  35.267  1.00  0.00     0.001 A 
ATOM     19  C   UNL     1      23.279  -0.402  35.947  1.00  0.00     0.001 A 
ATOM     20  C   UNL     1      22.167  -1.212  36.172  1.00  0.00     0.000 A 
ENDBRANCH  13  15
ENDBRANCH   5  13
TORSDOF 5
ENDMDL
MODEL 4
REMARK VINA RESULT:      -8.2      1.504      1.955
REMARK SMILES CC(C(=O)O)c1cccc(C(=O)c2ccccc2)c1
REMARK SMILES IDX 6 1 7 2 8 3 9 4 10 5 19 6 2 7 1 8 3 9 4 10 5 11 11 13 12 14
REMARK SMILES IDX 13 15 14 16 18 17 15 18 17 19 16 20
REMARK H PARENT 5 12
REMARK Flexibility Score: inf
ROOT
ATOM      1  C   UNL     1      25.112   2.521  33.736  1.00  0.00    -0.033 A 
ATOM      2  C   UNL     1      25.169   2.057  35.059  1.00  0.00     0.004 A 
ATOM      3  C   UNL     1      24.182   1.208  35.562  1.00  0.00     0.001 A 
ATOM      4  C   UNL     1      23.115   0.817  34.754  1.00  0.00     0.012 A 
ATOM      5  C   UNL     1      23.029   1.290  33.441  1.00  0.00     0.023 A 
ATOM      6  C   UNL     1      24.032   2.126  32.931  1.00  0.00     0.016 A 
ENDROOT
BRANCH   1   7
ATOM      7  C   UNL     1      26.204   3.433  33.204  1.00  0.00     0.126 C 
ATOM      8  C   UNL     1      25.813   4.080  31.874  1.00  0.00     0.025 C 
BRANCH   7   9
ATOM      9  C   UNL     1      26.600   4.491  34.219  1.00  0.00     0.310 C 
ATOM     10  O   UNL     1      27.708   4.682  34.694  1.00  0.00    -0.252 OA
BRANCH   9  11
ATOM     11  O   UNL     1      25.563   5.273  34.590  1.00  0.00    -0.481 OA
ATOM     12  H   UNL     1      25.218   5.621  33.741  1.00  0.00     0.296 HD
ENDBRANCH   9  11
ENDBRANCH   7   9
ENDBRANCH   1   7
BRANCH   5  13
ATOM     13  C   UNL     1      21.918   0.888  32.543  1.00  0.00     0.193 C 
ATOM     14  O   UNL     1      21.079   0.089  32.952  1.00  0.00    -0.289 OA
BRANCH  13  15
ATOM     15  C   UNL     1      21.797   1.431  31.166  1.00  0.00     0.022 A 
ATOM     16  C   UNL     1      20.930   2.509  30.948  1.00  0.00     0.012 A 
ATOM     17  C   UNL     1      22.490   0.866  30.088  1.00  0.00     0.012 A 
ATOM     18  C   UNL     1      20.783   3.040  29.666  1.00  0.00     0.001 A 
ATOM     19  C   UNL     1      22.339   1.401  28.806  1.00  0.00     0.001 A 
ATOM     20  C   UNL     1      21.490   2.488  28.598  1.00  0.00     0.000 A 
ENDBRANCH  13  15
ENDBRANCH   5  13
TORSDOF 5
ENDMDL
MODEL 5
REMARK VINA RESULT:      -8.2      2.309      4.868
REMARK SMILES CC(C(=O)O)c1cccc(C(=O)c2ccccc2)c1
REMARK SMILES IDX 6 1 7 2 8 3 9 4 10 5 19 6 2 7 1 8 3 9 4 10 5 11 11 13 12 14
REMARK SMILES IDX 13 15 14 16 18 17 15 18 17 19 16 20
REMARK H PARENT 5 12
REMARK Flexibility Score: inf
ROOT
ATOM      1  C   UNL     1      24.889   3.059  34.214  1.00  0.00    -0.033 A 
ATOM      2  C   UNL     1      24.978   3.657  32.948  1.00  0.00     0.004 A 
ATOM      3  C   UNL     1      24.151   3.244  31.901  1.00  0.00     0.001 A 
ATOM      4  C   UNL     1      23.228   2.218  32.101  1.00  0.00     0.012 A 
ATOM      5  C   UNL     1      23.143   1.594  33.350  1.00  0.00     0.023 A 
ATOM      6  C   UNL     1      23.960   2.024  34.404  1.00  0.00     0.016 A 
ENDROOT
BRANCH   1   7
ATOM      7  C   UNL     1      25.788   3.534  35.342  1.00  0.00     0.126 C 
ATOM      8  C   UNL     1      27.037   4.247  34.819  1.00  0.00     0.025 C 
BRANCH   7   9
ATOM      9  C   UNL     1      25.040   4.414  36.328  1.00  0.00     0.310 C 
ATOM     10  O   UNL     1      25.476   4.910  37.354  1.00  0.00    -0.252 OA
BRANCH   9  11
ATOM     11  O   UNL     1      23.758   4.634  35.963  1.00  0.00    -0.481 OA
ATOM     12  H   UNL     1      23.837   5.148  35.132  1.00  0.00     0.296 HD
ENDBRANCH   9  11
ENDBRANCH   7   9
ENDBRANCH   1   7
BRANCH   5  13
ATOM     13  C   UNL     1      22.165   0.507  33.609  1.00  0.00     0.193 C 
ATOM     14  O   UNL     1      21.307   0.262  32.764  1.00  0.00    -0.289 OA
BRANCH  13  15
ATOM     15  C   UNL     1      22.204  -0.289  34.861  1.00  0.00     0.022 A 
ATOM     16  C   UNL     1      21.106  -1.102  35.168  1.00  0.00     0.012 A 
ATOM     17  C   UNL     1      23.282  -0.211  35.752  1.00  0.00     0.012 A 
ATOM     18  C   UNL     1      21.101  -1.858  36.341  1.00  0.00     0.001 A 
ATOM     19  C   UNL     1      23.272  -0.968  36.925  1.00  0.00     0.001 A 
ATOM     20  C   UNL     1      22.185  -1.793  37.216  1.00  0.00     0.000 A 
ENDBRANCH  13  15
ENDBRANCH   5  13
TORSDOF 5
ENDMDL
MODEL 6
REMARK VINA RESULT:      -8.2      2.448      5.888
REMARK SMILES CC(C(=O)O)c1cccc(C(=O)c2ccccc2)c1
REMARK SMILES IDX 6 1 7 2 8 3 9 4 10 5 19 6 2 7 1 8 3 9 4 10 5 11 11 13 12 14
REMARK SMILES IDX 13 15 14 16 18 17 15 18 17 19 16 20
REMARK H PARENT 5 12
REMARK Flexibility Score: inf
ROOT
ATOM      1  C   UNL     1      22.369   0.344  34.234  1.00  0.00    -0.033 A 
ATOM      2  C   UNL     1      21.941   0.433  32.901  1.00  0.00     0.004 A 
ATOM      3  C   UNL     1      22.239   1.558  32.128  1.00  0.00     0.001 A 
ATOM      4  C   UNL     1      22.960   2.615  32.679  1.00  0.00     0.012 A 
ATOM      5  C   UNL     1      23.373   2.554  34.014  1.00  0.00     0.023 A 
ATOM      6  C   UNL     1      23.091   1.416  34.782  1.00  0.00     0.016 A 
ENDROOT
BRANCH   1   7
ATOM      7  C   UNL     1      22.046  -0.894  35.053  1.00  0.00     0.126 C 
ATOM      8  C   UNL     1      22.756  -0.886  36.408  1.00  0.00     0.025 C 
BRANCH   7   9
ATOM      9  C   UNL     1      20.550  -1.078  35.233  1.00  0.00     0.310 C 
ATOM     10  O   UNL     1      19.674  -0.865  34.410  1.00  0.00    -0.252 OA
BRANCH   9  11
ATOM     11  O   UNL     1      20.224  -1.531  36.463  1.00  0.00    -0.481 OA
ATOM     12  H   UNL     1      20.974  -1.244  37.024  1.00  0.00     0.296 HD
ENDBRANCH   9  11
ENDBRANCH   7   9
ENDBRANCH   1   7
BRANCH   5  13
ATOM     13  C   UNL     1      24.155   3.652  34.636  1.00  0.00     0.193 C 
ATOM     14  O   UNL     1      23.602   4.396  35.442  1.00  0.00    -0.289 OA
BRANCH  13  15
ATOM     15  C   UNL     1      25.586   3.869  34.307  1.00  0.00     0.022 A 
ATOM     16  C   UNL     1      26.066   3.402  33.077  1.00  0.00     0.012 A 
ATOM     17  C   UNL     1      26.465   4.483  35.208  1.00  0.00     0.012 A 
ATOM     18  C   UNL     1      27.407   3.579  32.736  1.00  0.00     0.001 A 
ATOM     19  C   UNL     1      27.807   4.658  34.862  1.00  0.00     0.001 A 
ATOM     20  C   UNL     1      28.275   4.210  33.627  1.00  0.00     0.000 A 
ENDBRANCH  13  15
ENDBRANCH   5  13
TORSDOF 5
ENDMDL
MODEL 7
REMARK VINA RESULT:      -8.2      1.755      2.391
REMARK SMILES CC(C(=O)O)c1cccc(C(=O)c2ccccc2)c1
REMARK SMILES IDX 6 1 7 2 8 3 9 4 10 5 19 6 2 7 1 8 3 9 4 10 5 11 11 13 12 14
REMARK SMILES IDX 13 15 14 16 18 17 15 18 17 19 16 20
REMARK H PARENT 5 12
REMARK Flexibility Score: inf
ROOT
ATOM      1  C   UNL     1      25.010   2.804  34.423  1.00  0.00    -0.033 A 
ATOM      2  C   UNL     1      24.440   1.560  34.732  1.00  0.00     0.004 A 
ATOM      3  C   UNL     1      23.638   0.890  33.805  1.00  0.00     0.001 A 
ATOM      4  C   UNL     1      23.385   1.460  32.558  1.00  0.00     0.012 A 
ATOM      5  C   UNL     1      23.925   2.710  32.242  1.00  0.00     0.023 A 
ATOM      6  C   UNL     1      24.746   3.371  33.166  1.00  0.00     0.016 A 
ENDROOT
BRANCH   1   7
ATOM      7  C   UNL     1      25.891   3.509  35.440  1.00  0.00     0.126 C 
ATOM      8  C   UNL     1      27.069   4.227  34.779  1.00  0.00     0.025 C 
BRANCH   7   9
ATOM      9  C   UNL     1      25.095   4.469  36.306  1.00  0.00     0.310 C 
ATOM     10  O   UNL     1      25.515   5.169  37.213  1.00  0.00    -0.252 OA
BRANCH   9  11
ATOM     11  O   UNL     1      23.785   4.504  35.979  1.00  0.00    -0.481 OA
ATOM     12  H   UNL     1      23.636   5.435  35.711  1.00  0.00     0.296 HD
ENDBRANCH   9  11
ENDBRANCH   7   9
ENDBRANCH   1   7
BRANCH   5  13
ATOM     13  C   UNL     1      23.692   3.345  30.921  1.00  0.00     0.193 C 
ATOM     14  O   UNL     1      24.396   4.292  30.580  1.00  0.00    -0.289 OA
BRANCH  13  15
ATOM     15  C   UNL     1      22.630   2.860  30.004  1.00  0.00     0.022 A 
ATOM     16  C   UNL     1      22.987   2.505  28.697  1.00  0.00     0.012 A 
ATOM     17  C   UNL     1      21.288   2.793  30.400  1.00  0.00     0.012 A 
ATOM     18  C   UNL     1      22.015   2.054  27.804  1.00  0.00     0.001 A 
ATOM     19  C   UNL     1      20.318   2.341  29.502  1.00  0.00     0.001 A 
ATOM     20  C   UNL     1      20.683   1.969  28.208  1.00  0.00     0.000 A 
ENDBRANCH  13  15
ENDBRANCH   5  13
TORSDOF 5
ENDMDL
MODEL 8
REMARK VINA RESULT:      -8.1      3.464      6.553
REMARK SMILES CC(C(=O)O)c1cccc(C(=O)c2ccccc2)c1
REMARK SMILES IDX 6 1 7 2 8 3 9 4 10 5 19 6 2 7 1 8 3 9 4 10 5 11 11 13 12 14
REMARK SMILES IDX 13 15 14 16 18 17 15 18 17 19 16 20
REMARK H PARENT 5 12
REMARK Flexibility Score: inf
ROOT
ATOM      1  C   UNL     1      22.024  -1.157  35.883  1.00  0.00    -0.033 A 
ATOM      2  C   UNL     1      20.842  -1.132  35.128  1.00  0.00     0.004 A 
ATOM      3  C   UNL     1      20.749  -0.359  33.968  1.00  0.00     0.001 A 
ATOM      4  C   UNL     1      21.834   0.410  33.551  1.00  0.00     0.012 A 
ATOM      5  C   UNL     1      23.012   0.417  34.305  1.00  0.00     0.023 A 
ATOM      6  C   UNL     1      23.110  -0.375  35.457  1.00  0.00     0.016 A 
ENDROOT
BRANCH   1   7
ATOM      7  C   UNL     1      22.109  -2.015  37.133  1.00  0.00     0.126 C 
ATOM      8  C   UNL     1      21.649  -1.258  38.381  1.00  0.00     0.025 C 
BRANCH   7   9
ATOM      9  C   UNL     1      21.338  -3.314  36.979  1.00  0.00     0.310 C 
ATOM     10  O   UNL     1      20.277  -3.610  37.503  1.00  0.00    -0.252 OA
BRANCH   9  11
ATOM     11  O   UNL     1      21.951  -4.191  36.155  1.00  0.00    -0.481 OA
ATOM     12  H   UNL     1      21.796  -3.819  35.261  1.00  0.00     0.296 HD
ENDBRANCH   9  11
ENDBRANCH   7   9
ENDBRANCH   1   7
BRANCH   5  13
ATOM     13  C   UNL     1      24.195   1.211  33.888  1.00  0.00     0.193 C 
ATOM     14  O   UNL     1      24.797   0.894  32.865  1.00  0.00    -0.289 OA
BRANCH  13  15
ATOM     15  C   UNL     1      24.664   2.378  34.678  1.00  0.00     0.022 A 
ATOM     16  C   UNL     1      23.979   2.706  35.854  1.00  0.00     0.012 A 
ATOM     17  C   UNL     1      25.735   3.173  34.252  1.00  0.00     0.012 A 
ATOM     18  C   UNL     1      24.384   3.801  36.617  1.00  0.00     0.001 A 
ATOM     19  C   UNL     1      26.137   4.269  35.020  1.00  0.00     0.001 A 
ATOM     20  C   UNL     1      25.464   4.578  36.202  1.00  0.00     0.000 A 
ENDBRANCH  13  15
ENDBRANCH   5  13
TORSDOF 5
ENDMDL
MODEL 9
REMARK VINA RESULT:      -8.1      1.514      6.651
REMARK SMILES CC(C(=O)O)c1cccc(C(=O)c2ccccc2)c1
REMARK SMILES IDX 6 1 7 2 8 3 9 4 10 5 19 6 2 7 1 8 3 9 4 10 5 11 11 13 12 14
REMARK SMILES IDX 13 15 14 16 18 17 15 18 17 19 16 20
REMARK H PARENT 5 12
REMARK Flexibility Score: inf
ROOT
ATOM      1  C   UNL     1      23.214   2.418  31.429  1.00  0.00    -0.033 A 
ATOM      2  C   UNL     1      23.068   1.134  31.975  1.00  0.00     0.004 A 
ATOM      3  C   UNL     1      23.889   0.705  33.022  1.00  0.00     0.001 A 
ATOM      4  C   UNL     1      24.875   1.549  33.529  1.00  0.00     0.012 A 
ATOM      5  C   UNL     1      25.050   2.822  32.979  1.00  0.00     0.023 A 
ATOM      6  C   UNL     1      24.213   3.259  31.944  1.00  0.00     0.016 A 
ENDROOT
BRANCH   1   7
ATOM      7  C   UNL     1      22.302   2.870  30.301  1.00  0.00     0.126 C 
ATOM      8  C   UNL     1      22.709   2.264  28.956  1.00  0.00     0.025 C 
BRANCH   7   9
ATOM      9  C   UNL     1      20.843   2.575  30.602  1.00  0.00     0.310 C 
ATOM     10  O   UNL     1      20.368   2.197  31.660  1.00  0.00    -0.252 OA
BRANCH   9  11
ATOM     11  O   UNL     1      20.039   2.777  29.535  1.00  0.00    -0.481 OA
ATOM     12  H   UNL     1      19.207   2.322  29.781  1.00  0.00     0.296 HD
ENDBRANCH   9  11
ENDBRANCH   7   9
ENDBRANCH   1   7
BRANCH   5  13
ATOM     13  C   UNL     1      26.079   3.757  33.500  1.00  0.00     0.193 C 
ATOM     14  O   UNL     1      27.036   4.050  32.786  1.00  0.00    -0.289 OA
BRANCH  13  15
ATOM     15  C   UNL     1      25.977   4.345  34.859  1.00  0.00     0.022 A 
ATOM     16  C   UNL     1      26.824   5.410  35.190  1.00  0.00     0.012 A 
ATOM     17  C   UNL     1      25.093   3.835  35.819  1.00  0.00     0.012 A 
ATOM     18  C   UNL     1      26.763   5.983  36.461  1.00  0.00     0.001 A 
ATOM     19  C   UNL     1      25.037   4.411  37.090  1.00  0.00     0.001 A 
ATOM     20  C   UNL     1      25.868   5.486  37.408  1.00  0.00     0.000 A 
ENDBRANCH  13  15
ENDBRANCH   5  13
TORSDOF 5
ENDMDL
